124
 energy: -185.982641967497 gnorm: 0.000160937674 xtb: 6.5.1 (579679a)
C           38.38740980547880        8.46602744291220       58.05937194283516
C           39.53634720572058        7.95222528046416       58.65717859467040
C           39.51089966855695        6.64743658004774       59.14447296226965
C           38.39083876810957        5.85757897894794       58.97814508078440
C           37.28297717262730        6.33669602826852       58.28233774144404
C           37.28366948197058        7.66307142675148       57.85516194409866
C           40.75052300579679        8.77207434378102       58.75560641925363
C           41.93641641713857        8.48233628763615       58.21378413165330
C           42.26822766669105        7.35069548516631       57.35549411749346
C           43.59458160286489        6.93978147708973       57.25586015336573
C           43.98025059625457        5.87330346291282       56.44763677034752
C           43.00629094051137        5.17354683515576       55.71382195751608
C           41.68252628236625        5.60443210383147       55.80093213761808
C           41.31970292676666        6.67975372488284       56.57989932495791
C           43.34155502682418        3.97624184528049       54.94529794745266
C           42.79767898223161        3.62377162897673       53.77794793922010
C           41.86536352543270        4.45973673674002       53.01868728414171
C           42.17064629305032        5.78804430254397       52.72868844414305
C           41.24612209090984        6.59943514342059       52.10467801624998
C           39.97321593948129        6.12001042539926       51.79892631433344
C           39.69303780941353        4.77411595344861       52.02673205362619
C           40.63534596023196        3.94993877203433       52.60648320510574
C           38.95117313644739        7.03273841940515       51.28152809005920
C           37.72648507371145        7.18273283051042       51.79405690585526
C           37.21680759380320        6.57353366834613       53.01830977317748
C           35.85327955972562        6.25130685686279       53.16598636512514
C           35.38117612172755        5.81587562621861       54.40205449600651
C           36.21948286783542        5.65753790371447       55.49962241971387
C           37.58074236406921        5.91696265950094       55.32156470111125
C           38.05449989961585        6.39028583069490       54.11932077597455
C           34.93052351881124        6.34327582646362       52.05112982202097
C           35.15564606163856        6.11601459615580       50.71942888357327
C           34.01507102399807        6.29172085050297       49.91868993324250
C           32.90011961195069        6.65650567556687       50.62556861816422
S           33.26377994484848        6.75995975818854       52.32365177643904
C           31.55516520813724        6.91508785905863       50.14922059198199
C           31.32176736419489        7.46587573335090       48.87448807007678
C           29.99832924925565        7.62525101480349       48.46268164431191
C           28.93817699582020        7.25947741906661       49.26061739652150
C           29.15495573849004        6.75956611236420       50.54753495502137
C           30.47208461414389        6.58768389102452       50.96101028495789
C           32.41424907307104        7.95313785856732       48.03752120806342
C           32.46361569840236        7.90165790117755       46.70371492767295
C           31.47801975260119        7.22554859121614       45.85719980198770
C           31.08331851092074        5.91397063228513       46.11433899109595
C           30.09162107317307        5.31840600625710       45.36209705834430
C           29.43414658241515        6.03349572401175       44.36323680512910
C           29.86897293471539        7.32343745248469       44.06670066054097
C           30.89284313398800        7.90198968868569       44.78824414760981
C           28.30141350953723        5.44137951959826       43.64195925998049
C           27.06478719696324        5.94330635951735       43.59330236602113
C           26.55292558235720        7.10338992524950       44.31412981318697
C           25.46311403500835        7.80750604805666       43.79717654048223
C           24.93551512686439        8.89437247812785       44.46240816840251
C           25.45892564677928        9.31067087136022       45.68762103852257
C           26.55428420309369        8.61280719861315       46.19927190407029
C           27.08009472504146        7.52593323567006       45.53622711175409
H           25.03463785646240        7.50010479943436       42.85294180432981
C           24.88048041388267       10.46236468655366       46.37259059766835
C           24.83819106571677       10.66325259136663       47.69219542181640
C           25.27834685515607        9.69934416354891       48.70664739393316
C           26.22898999836389       10.05509335991304       49.66090881877145
C           26.72217370183063        9.11649345095982       50.54529091761521
C           26.24506701929707        7.80792296751926       50.52829679896026
C           25.22200505315780        7.47951307679255       49.64130678994348
C           24.76078833173016        8.40564990022523       48.72829802862093
C           28.07362881711461        6.36999223434682       51.44453562026492
C           26.80541237953553        6.78747577940732       51.42333154390708
C           35.66813619324979        5.19561116304999       56.76947527266807
C           36.14775495277431        5.45442774144293       57.98866005611383
C           45.39490979258974        5.54862073551239       56.35671099418946
C           46.33502745356411        5.61781137971292       57.34688872355049
C           47.63411412585020        5.28888342394466       56.90971033979098
C           47.67810538553289        4.98754476529260       55.58679791082224
S           46.13007305227560        5.08553530464988       54.84848916212693
H           24.09194641398823        9.42293171529863       44.03981562865643
H           27.00758033041954        8.93726661590859       47.12292143134453
H           27.89986872400477        6.98508666488361       45.98147254000877
H           26.33366335068080        5.44563436687522       42.96652333970859
H           28.51626693285838        4.52174663905002       43.11027107489019
H           29.78616318000091        4.30423702206248       45.57767636103753
H           31.55492324874934        5.36664104310899       46.91769767820495
H           31.21419607381934        8.90785645655983       44.55696411317984
H           29.38627556091292        7.87372199686406       43.27212810171619
H           33.27252794448466        8.40007546837220       46.18356171403308
H           33.22255007421897        8.43776039580936       48.57250634420627
H           30.66954030323748        6.18023258432577       51.94361126359865
H           27.93429537076072        7.35555411352435       48.88164192547715
H           29.80230341952003        8.06563260944880       47.49704010122246
H           34.00741454291942        6.12274250209081       48.85643834746955
H           36.10757761554775        5.79961008964750       50.33108454107534
H           28.36026025701196        5.64935766833736       52.20163850087447
H           26.10039310642339        6.34699256363709       52.11899733323268
H           27.49481576800648        9.38790855791597       51.24996507275748
H           26.61499343046373       11.06466242309446       49.67554732884604
H           23.99908884420786        8.12954669964090       48.01372834936276
H           24.82105158591386        6.47580491653843       49.64171674414033
H           24.45805372383528       11.21666332570577       45.71902307496604
H           24.44952881928973       11.60060083303606       48.07205926747483
H           34.32705811447688        5.59480210027593       54.50373027606471
H           38.27009779598669        5.74204546070996       56.13142485053664
H           39.09858915359383        6.64737141514724       54.03134618757748
H           37.03727178954851        7.85740768801469       51.29974899450972
H           39.24301589615551        7.63432654625936       50.42916525523410
H           41.48790819625850        7.63214099552640       51.89611283487065
H           43.13848609176227        6.17940988542489       53.00642907072888
H           40.40208758358493        2.91082412335431       52.79192756867932
H           38.72251469161892        4.38245889267727       51.75816778018076
H           43.03451221559900        2.65804929676933       53.34961935908586
H           44.05604044651651        3.30915047391260       55.41204773729952
H           44.35479510525828        7.47163219833409       57.81062299440866
H           40.29489144886775        7.01182094998900       56.57876099850684
H           40.92158349664372        5.07025618106128       55.25284647055854
H           46.09874160973695        5.86972254325735       58.36547403766681
H           48.49597757817744        5.27887312114998       57.55303353237009
H           48.52526717788708        4.70742419440290       54.99291333614180
H           42.76562423928538        9.15138563498846       58.41268773366767
H           40.64468440092102        9.69224838580701       59.31846831711703
H           40.38551420318786        6.25127555002325       59.63974224001584
H           38.38835861136050        4.84120828653330       59.34597173208539
H           36.41499550961746        8.05457037072560       57.34617947316741
H           38.38289074505160        9.48874040195893       57.70985939552894
H           34.78187225881200        4.57843313597717       56.68226576282932
H           35.68186266605784        4.98740708591178       58.84821489627952
