     368
 i =       19, E =     -1374.5497971323
  S        29.3812002787       16.0636433981       31.8990623289
  C        28.8557732703       15.4154074084       33.4247182930
  C        29.9516480817       15.0834432074       34.2085544002
  C        31.1927839987       15.3517144402       33.5812697262
  C        31.0616536055       15.8920975081       32.3103857806
  C        32.0919891650       16.3520140806       31.3760963452
  C        33.1888040437       17.1404850105       31.8254511096
  C        34.1298860414       17.5613059289       30.8605610641
  C        34.0073812656       17.2355284581       29.5179904330
  C        32.9140696911       16.4692340680       29.0563107582
  C        31.9826764904       16.0297252096       30.0111064177
  C        33.2697937680       17.6098245290       33.2141457044
  C        34.3781609229       17.9262129786       33.9273328800
  C        35.7747646015       17.7109337027       33.5116652791
  C        36.2201522758       16.4581759060       33.0511874210
  C        37.5173595607       16.2945541891       32.5662645416
  C        38.3981331121       17.3893532250       32.4843948849
  C        37.9760662651       18.6248555438       33.0073396010
  C        36.6943629806       18.7766292003       33.5345993818
  C        39.7232189939       17.2562098963       31.8475564381
  C        40.1753101674       17.9737147258       30.7913693775
  C        39.4376901987       18.9229159791       29.9488793667
  C        38.0382028583       18.8644544726       29.7681859773
  C        37.3816136054       19.7542317882       28.9275089483
  C        38.0877781065       20.7480402627       28.2150841401
  C        39.4823334654       20.8163927409       28.4050840663
  C        40.1438074690       19.9122495065       29.2351155967
  C        32.7474114588       16.0657857515       27.6549422364
  C        33.2511031063       16.6517845102       26.5431875829
  C        33.9880068746       17.9312185975       26.4848620952
  C        35.3067112266       17.9835767371       25.9975286658
  C        36.0380151489       19.1700979467       26.0462051162
  C        35.4620955506       20.3531698969       26.5438683623
  C        34.1124246748       20.3220242067       26.9394712058
  C        33.3941451521       19.1254359336       26.9312229411
  C        37.4275067201       21.7221076072       27.3372411934
  C        36.2627027944       21.5880417918       26.6596174580
  C        27.4256226581       15.3484480745       33.7342225289
  C        26.5287745495       14.8635381218       32.7644120536
  C        25.1422284903       14.8108551588       32.9789886386
  C        24.6615999662       15.2345486999       34.2378680644
  C        25.5325631597       15.7135116280       35.2057447341
  C        26.9261237123       15.7923296134       34.9911122839
  C        27.8099411742       16.4314927478       35.9745247720
  C        27.6701683120       16.4757098094       37.3216044243
  C        26.6698956257       15.7434993108       38.1167395015
  C        25.8422745174       16.4317477369       39.0243174038
  C        24.7892759990       15.7792861308       39.6642117919
  C        24.5598908013       14.4077443788       39.4543557150
  C        25.4599941197       13.6958427306       38.6396733354
  C        26.4847912519       14.3571004459       37.9645949330
  C        23.3866029049       13.7363522547       40.0423138207
  C        22.0948666520       14.1018562972       39.8662877780
  C        21.5511695468       15.1240905585       38.9624528345
  C        20.2983868821       15.7220750240       39.2525430408
  C        19.7340788147       16.6455417026       38.3595154441
  C        20.3613133222       16.9940926671       37.1515428373
  C        21.6084533390       16.3938776957       36.8705139907
  C        22.1796789546       15.4821169739       37.7489900018
  C        19.5799891692       15.4404434740       40.5081397907
  C        18.3606291242       14.8150790904       40.6843669392
  C        17.9145535874       14.8273941347       42.0351584002
  C        18.7932545572       15.4638382418       42.8907225503
  S        20.1834001525       16.0379131996       42.0235048319
  C        19.7388597017       18.0054796504       36.2870445819
  C        19.8832150577       18.1693068787       34.9515775828
  C        20.6028775955       17.2530373005       34.0459003806
  C        20.2491895326       15.8936899496       33.9724104680
  C        20.9762717133       15.0073585147       33.1783162058
  C        22.1090350243       15.4440966439       32.4679228545
  C        22.4286276498       16.8135021459       32.4963916197
  C        21.6738176776       17.7078436282       33.2557501251
  C        24.2753277723       14.2666565228       31.9265428582
  C        22.9540792320       14.4852628939       31.7284107994
  C        18.6298056570       15.7722814437       44.3243148478
  C        17.7472100303       16.8017820874       44.6819780823
  C        17.5442571101       17.1800207986       46.0199719743
  C        18.2842671866       16.4936090383       47.0077144927
  C        19.1661010449       15.4771100286       46.6649969321
  C        19.3736957036       15.0922319090       45.3216963777
  C        20.2521997359       13.9787177561       44.9426808599
  C        21.3324078032       13.4985390143       45.6041379498
  C        21.9607746873       14.1017428814       46.7941328210
  C        22.1042630789       13.3647399061       47.9844223354
  C        22.5621467041       13.9767192782       49.1504990995
  C        22.9353154609       15.3331412146       49.1534409225
  C        22.9051965798       16.0352384189       47.9336092574
  C        22.4038976012       15.4365263252       46.7784725320
  C        23.3028441074       16.0244349576       50.4010093892
  C        22.5734512069       16.0468311452       51.5427017730
  C        21.2116382786       15.5397874653       51.7556925313
  C        20.7753856134       15.1225757397       53.0444987570
  C        19.4283345567       14.7673073355       53.2410528965
  C        18.4776954508       14.8190416955       52.2091932755
  C        18.9278792122       15.2138006608       50.9297987888
  C        20.2527193496       15.5669600391       50.7197323075
  C        21.7027870851       15.0849096387       54.1772020410
  C        23.0048330851       14.6122605736       54.2463254070
  C        23.6079813756       14.8130824456       55.5117941157
  C        22.7736376489       15.4417535628       56.4250233572
  S        21.2311111185       15.7810813429       55.6984244201
  C        17.0969550802       14.4031741791       52.4852205118
  C        15.9660730848       14.7447847960       51.8230977738
  C        15.8617161460       15.7403951670       50.7388775298
  C        16.2733816795       17.0700565459       50.9420088540
  C        16.2487533813       17.9937600727       49.8970771195
  C        15.8534214097       17.6038987450       48.6049117369
  C        15.3835328826       16.2914943420       48.4169542971
  C        15.3670711148       15.3801024619       49.4722488342
  C        16.6425937575       18.3002413037       46.3215322521
  C        15.9538126457       18.5330344878       47.4629152265
  C        23.0404208672       15.8718469219       57.7984681150
  C        22.0651779760       15.6645512988       58.7910131740
  C        22.2380637846       16.0903497954       60.1172789431
  C        23.4634065221       16.7111499275       60.4471765584
  C        24.4372650797       16.9192455591       59.4811373043
  C        24.2608474339       16.5211004589       58.1376692140
  C        25.2401444425       16.8825376449       57.1039454847
  C        26.5805644321       17.0297932119       57.2381906007
  C        27.3694778967       16.6997693426       58.4373191054
  C        27.2630027337       15.4433395301       59.0611739703
  C        27.9155168333       15.1872581114       60.2659259666
  C        28.6595963008       16.1944902460       60.9098208844
  C        28.8332685598       17.4222829186       60.2453804503
  C        28.2160084012       17.6627389406       59.0188892497
  C        29.1936700504       15.9723957242       62.2641414947
  C        28.9923404850       16.7673191754       63.3431595113
  C        28.0905139837       17.9196754938       63.4659538838
  C        28.3432563388       18.9525750778       64.4128241884
  C        27.3899807877       19.9702482722       64.6016806039
  C        26.1757273649       20.0039859587       63.8980233429
  C        25.9466093366       18.9858736054       62.9454460823
  C        26.8775481225       17.9770692165       62.7449829038
  C        29.5666702936       18.9519009923       65.2174738637
  C        30.8762833256       18.6922918840       64.8410781139
  C        31.7858669748       18.7101243953       65.9266508611
  C        31.1822860380       18.9854308069       67.1448877807
  S        29.4737787971       19.2235543624       66.9320319579
  C        25.2394621456       21.1117776852       64.1292460528
  C        23.9014048235       21.1355724465       63.9238759982
  C        23.0594267123       19.9820607438       63.5480783849
  C        22.2771180010       20.0046389123       62.3790972926
  C        21.5757696277       18.8701551474       61.9693561185
  C        21.5995078640       17.6920337539       62.7373301200
  C        22.3004149485       17.7033164164       63.9567759304
  C        23.0356162215       18.8229703280       64.3448282479
  C        21.1800260498       15.8208775169       61.0989517729
  C        20.9265936784       16.4668091446       62.2611604943
  C        31.7620956230       19.0348785292       68.4887783118
  C        31.4010737762       20.0785546857       69.3599730521
  C        31.8878262274       20.1641635184       70.6738035735
  C        32.7988730964       19.1711866124       71.0963768389
  C        33.1658762517       18.1361225382       70.2489287590
  C        32.6637971016       18.0272909570       68.9337302010
  C        32.9536243733       16.8512990533       68.1035484339
  C        34.0609366379       16.0704025934       68.1147018278
  C        35.2996923187       16.3349767030       68.8652297638
  C        35.8196230920       15.3646133542       69.7429097930
  C        36.8932152538       15.6629620111       70.5797289763
  C        37.5119628950       16.9256207920       70.5352608827
  C        37.0716416164       17.8497879261       69.5684986904
  C        35.9692917009       17.5682554573       68.7631193515
  C        38.5584191522       17.2978962131       71.5016576729
  C        38.4691400472       17.1920810178       72.8496651554
  C        37.2892389478       16.8476778493       73.6538330036
  C        37.4256684635       16.2503578888       74.9385180285
  C        36.2848337903       16.0554613908       75.7377607571
  C        35.0011330704       16.4448832672       75.3245658242
  C        34.8752878643       17.0146022645       74.0384390316
  C        35.9900367606       17.2111880231       73.2367833019
  C        38.7405334390       15.8590953125       75.4500006166
  C        39.7805442822       15.2035944363       74.8072976357
  C        40.9338873605       15.0540821070       75.6151558489
  C        40.7906448437       15.5945136130       76.8846743644
  S        39.2073254806       16.2890411898       77.0688611805
  C        33.8572849968       16.1928624844       76.2094641766
  C        32.6605557095       16.8250304770       76.2350309151
  C        32.2903694406       18.0180793608       75.4477282565
  C        33.0363911648       19.2063064795       75.5497269945
  C        32.7323007286       20.3112643108       74.7542354310
  C        31.7013555123       20.2474263724       73.7996675841
  C        30.9206146322       19.0792064068       73.7370179226
  C        31.1965441619       17.9901827370       74.5640193180
  C        31.4859744601       21.2972720925       71.5171982943
  C        31.4569527399       21.3672516158       72.8686069916
  C        41.7649574052       15.6948559454       77.9733340622
  C        41.3640617814       15.4117699063       79.2916309464
  C        42.2381490935       15.5250084288       80.3848257973
  C        43.5722595768       15.9034877186       80.1154886859
  C        43.9834592394       16.1874171384       78.8214366703
  C        43.1053578209       16.1011055180       77.7185639653
  C        43.5214105705       16.5420192404       76.3812243129
  C        44.7620079772       16.5062637567       75.8373234786
  C        45.9499655769       15.8605738181       76.4210148980
  C        47.1424275083       16.5893006461       76.5911121233
  C        48.2241006927       16.0358280381       77.2737707506
  C        48.1670802705       14.7201547436       77.7682116195
  C        47.0177127945       13.9539649907       77.4973901405
  C        45.9191043089       14.5222407300       76.8544401531
  C        49.2680844500       14.1692885370       78.5780470083
  C        49.7806508987       14.7234759275       79.7025027803
  C        49.2725330759       15.8761482268       80.4574108196
  C        50.1525269806       16.6357090932       81.2717555827
  C        49.6492819059       17.6804386788       82.0623603355
  C        48.2795268322       17.9998455033       82.0948214830
  C        47.4151002915       17.2436907968       81.2736173162
  C        47.9003965485       16.2087872614       80.4863672632
  C        51.6030168605       16.3618826836       81.2848272515
  C        52.3723561995       15.8362835932       82.3059528493
  C        53.7497787168       15.7191352235       81.9675201242
  C        54.0200080206       16.1682381423       80.6933504996
  S        52.5947388389       16.7220754625       79.9032598987
  C        47.8237786406       19.1347368156       82.9076833803
  C        46.5875646486       19.3739286346       83.4058067477
  C        45.4382510985       18.4486171592       83.3665298085
  C        45.5391639516       17.1593028743       83.9192106110
  C        44.4806736008       16.2561377129       83.8259912535
  C        43.3027651944       16.5974853314       83.1371748224
  C        43.1796835054       17.9051935409       82.6350075347
  C        44.2223263617       18.8229556449       82.7662159420
  C        41.7507331302       15.1910753624       81.7287766755
  C        42.2333397248       15.6013940911       82.9252641532
  H        29.8478291091       14.6393549894       35.1983205638
  H        32.1640716086       15.1396914262       34.0274826776
  H        34.9650438478       18.1837456751       31.1829186578
  H        34.7670068480       17.5732405963       28.8132721881
  H        31.1469879839       15.4026538699       29.6896432418
  H        32.3025127918       17.7646871297       33.7027922801
  H        34.2301417492       18.4116747158       34.8976333926
  H        35.5262737408       15.6153598257       33.0573763742
  H        37.8399075806       15.3191401082       32.1955635968
  H        38.6620142632       19.4734346087       32.9764089749
  H        36.3770003520       19.7474548473       33.9212579606
  H        40.3989780350       16.5098122186       32.2779843112
  H        41.2179062678       17.8158250211       30.4963712473
  H        37.4622919489       18.0998957331       30.2897584901
  H        36.2984813995       19.6901104632       28.8221632527
  H        40.0545590787       21.5819650819       27.8762094235
  H        41.2283669394       19.9760458924       29.3479417937
  H        32.1527532175       15.1578615517       27.5098229763
  H        33.1000650010       16.1346832789       25.5897522205
  H        35.7755720293       17.0716714585       25.6215669849
  H        37.0773140457       19.1887391926       25.7125401037
  H        33.6389142049       21.2366547427       27.3031734434
  H        32.3636607751       19.1007855387       27.2908663047
  H        37.9460398107       22.6823970273       27.2467199051
  H        35.8735381917       22.4711281455       26.1425003501
  H        26.9343098916       14.5046098164       31.8150117429
  H        23.5950399926       15.1808273334       34.4549444272
  H        25.1297725552       16.0673128946       36.1554572152
  H        28.6555709552       16.9766819312       35.5431871887
  H        28.3458248005       17.1343885293       37.8771013368
  H        25.9959537796       17.5015352148       39.1820207487
  H        24.1160567968       16.3331111409       40.3215740204
  H        25.3169997814       12.6227512477       38.4954747117
  H        27.1417714175       13.8062654044       37.2884650375
  H        23.5839728409       12.8581143649       40.6659947376
  H        21.3386007659       13.5528049738       40.4365016567
  H        18.7843017317       17.1138349058       38.6289310416
  H        22.1380649543       16.6592990145       35.9551790317
  H        23.1318782094       15.0181307699       37.4903112180
  H        17.8190145355       14.3530763733       39.8591439123
  H        16.9847237194       14.3779435927       42.3830147400
  H        19.1007257822       18.7240928435       36.8118729935
  H        19.4276517949       19.0544359631       34.4954730766
  H        19.4041288738       15.5362043731       34.5638791479
  H        20.6966436529       13.9521113693       33.1461236623
  H        23.2912928640       17.1668931661       31.9282599878
  H        21.9459715102       18.7652632217       33.2789039090
  H        24.7738380753       13.5806404021       31.2338403075
  H        22.4570976906       13.9005416925       30.9474784819
  H        17.2132666827       17.3270773700       43.8864572565
  H        18.1715326332       16.7745525060       48.0553190334
  H        19.7060172015       14.9525380830       47.4537013217
  H        19.9595086838       13.4625373547       44.0225534245
  H        21.7821716560       12.5728587334       45.2300617026
  H        21.7989697018       12.3163805557       48.0048922764
  H        22.6125862036       13.4118257401       50.0836977721
  H        23.2275782945       17.0785994092       47.9085938226
  H        22.3287157880       16.0069106441       45.8504686584
  H        24.2391134496       16.5919135446       50.3882521447
  H        23.0190026560       16.5428760684       52.4107952746
  H        19.1187462329       14.4273571510       54.2324881255
  H        18.2273164708       15.2387147479       50.0953959297
  H        20.5631370466       15.9030281525       49.7297789581
  H        23.4917866492       14.1191116012       53.4051332804
  H        24.6171254699       14.4915024207       55.7680698970
  H        16.9888948066       13.7086010312       53.3246768316
  H        15.0385459902       14.2416018010       52.1147981581
  H        16.6344622353       17.3666405025       51.9286822178
  H        16.5887975561       19.0175717291       50.0678929629
  H        15.0487490627       15.9879590576       47.4230151778
  H        15.0145470536       14.3602275253       49.3044257400
  H        16.5504872657       19.0420065512       45.5212773153
  H        15.4177249447       19.4836165093       47.5507062843
  H        21.1445780479       15.1436389154       58.5150899719
  H        23.6492762918       17.0275062319       61.4735464366
  H        25.3587627763       17.4331217272       59.7567239487
  H        24.8089443014       17.1031904009       56.1221921364
  H        27.1290858647       17.4605145872       56.3940599699
  H        26.6370586324       14.6759944894       58.6016175131
  H        27.8032695303       14.2139084132       60.7489363645
  H        29.4375687708       18.1994207452       60.7179828346
  H        28.3422284453       18.6296516951       58.5269846421
  H        29.7862326128       15.0637345403       62.4119221782
  H        29.5217379331       16.5003070332       64.2632470577
  H        27.6128237997       20.7660939814       65.3170525022
  H        25.0294132989       18.9952677220       62.3565745097
  H        26.6567100466       17.1848242255       62.0286659386
  H        31.1612502560       18.5130162159       63.8045494513
  H        32.8591262272       18.5478019677       65.8308719869
  H        25.7029827014       22.0350713061       64.4927085001
  H        23.3868355417       22.0936419974       64.0513854980
  H        22.2612840135       20.9056829173       61.7621763509
  H        21.0150349410       18.8793351533       61.0326962395
  H        22.3065567530       16.8060760223       64.5795346959
  H        23.6196285948       18.8038978815       65.2668841932
  H        20.5333703468       14.9727413785       60.8513245768
  H        20.1513981096       16.0501488663       62.9125724544
  H        30.7244329878       20.8537722403       68.9915232159
  H        33.2226134571       19.2196549408       72.0994547999
  H        33.8433001887       17.3641550683       70.6151849605
  H        32.1411397384       16.5537474055       67.4331620734
  H        34.0288939305       15.1419184983       67.5351981507
  H        35.3356859393       14.3872911184       69.8058931194
  H        37.2486633587       14.9242638765       71.3010320846
  H        37.5673390462       18.8202474167       69.4922866652
  H        35.5971741059       18.3161151414       68.0599086765
  H        39.4790182508       17.7216492907       71.0874163895
  H        39.3639225285       17.4374480692       73.4305516397
  H        36.4074764659       15.5743006912       76.7113666970
  H        33.8909169416       17.3019027519       73.6691818863
  H        35.8677807278       17.6873493807       72.2633795298
  H        39.6915748972       14.8251744262       73.7892904944
  H        41.8448941380       14.5481432540       75.2964505636
  H        34.0006325852       15.3720892998       76.9199542123
  H        31.8910493745       16.4232035020       76.9023168329
  H        33.8728451166       19.2469118301       76.2500760203
  H        33.3313535759       21.2208454818       74.8357872312
  H        30.1028841915       19.0277178027       73.0156911064
  H        30.5894233721       17.0854037346       74.4920004651
  H        31.1954463391       22.1975450107       70.9659832536
  H        31.2281550100       22.3378808316       73.3208604638
  H        40.3369039274       15.0798998249       79.4637080599
  H        44.2891634996       15.9722428049       80.9335715759
  H        45.0092934968       16.5146273615       78.6487687158
  H        42.7274314420       16.9983497629       75.7815350215
  H        44.9097787014       17.0265166457       74.8852640044
  H        47.1963733837       17.6180081764       76.2282872589
  H        49.1242883046       16.6278284412       77.4510678872
  H        46.9702439085       12.9192658360       77.8441541017
  H        45.0106361490       13.9368787500       76.6994386737
  H        49.7013341573       13.2230721142       78.2378342001
  H        50.6585439107       14.2410573509       80.1437577739
  H        50.3526560603       18.2656916430       82.6594067083
  H        46.3516266071       17.4809481229       81.2503783048
  H        47.2029720139       15.6248672150       79.8852707090
  H        51.9412399065       15.5242225782       83.2573829492
  H        54.5100969993       15.3140663733       82.6341090062
  H        54.9769381312       16.2070688615       80.1803833825
  H        48.5902036440       19.8925222470       83.1016289147
  H        46.4174523515       20.3408541522       83.8908855783
  H        46.4691950892       16.8673333100       84.4107031061
  H        44.5834799031       15.2539142367       84.2475979014
  H        42.2600351189       18.1889768685       82.1194535595
  H        44.1143198981       19.8293045261       82.3560432083
  H        40.8968432544       14.5057688531       81.7475292556
  H        41.7953748327       15.1574535303       83.8252829153
