     368
 i =      100, E =     -1374.5629164976
  C        82.7718053205       14.8927677344       13.0829462798
  C        83.1628012467       13.5715759694       13.3860954812
  C        83.9393001492       13.2796885968       14.5051138399
  C        84.3801737050       14.3036299086       15.3642446552
  C        83.9607362946       15.6207734967       15.0859892766
  C        83.1727246159       15.9112222463       13.9771267435
  C        85.1911387944       13.9749671051       16.5461774057
  C        86.3075473216       14.5857471888       17.0147871983
  C        87.1343328699       15.6410748831       16.4243577466
  C        88.0501389291       16.3203968645       17.2551412099
  C        88.9012754623       17.3012194122       16.7497346906
  C        88.8618352603       17.6591118832       15.3901367324
  C        87.9772200108       16.9552119028       14.5479687529
  C        87.1386534923       15.9653433292       15.0491250477
  C        89.7683445734       18.6932147698       14.8659436482
  C        89.4695634319       19.7702869116       14.0979325123
  C        88.1729101521       20.3173497681       13.6927111824
  C        86.9442037912       19.9809276341       14.3051752480
  C        85.7562736057       20.5817160126       13.9072517145
  C        85.7346287942       21.5639069273       12.8955149258
  C        86.9611470368       21.9346347201       12.3128787288
  C        88.1492097021       21.3152612457       12.6949565392
  C        84.4893760311       22.2430627554       12.5178669170
  C        83.2678238363       21.6930922792       12.3181712412
  C        82.9026438666       20.2773982884       12.1777665107
  C        83.7785451461       19.3294858477       11.6079541959
  C        83.3621636678       18.0293597870       11.3357618026
  C        82.0388805591       17.6270734448       11.5968519390
  C        81.1569660952       18.5630034537       12.1542744955
  C        81.5766448317       19.8645983619       12.4692035946
  C        81.5770628022       16.2564686411       11.2832493190
  C        81.9301797414       15.1074322467       11.9024662904
  C        80.6389877650       20.7698041117       13.1554215451
  S        80.9268471472       21.2146684968       14.8098535083
  C        79.4790275147       22.1703166957       14.8846493381
  C        78.8205673080       22.1490921806       13.6658242582
  C        79.4683398485       21.3426531266       12.6937913810
  C        79.0694382876       22.8340583360       16.1286841454
  C        79.0107198346       22.1126141852       17.3323146885
  C        78.5494609027       22.6901208584       18.5287778186
  C        78.1743998272       24.0517252558       18.4997522026
  C        78.2413281661       24.7801509074       17.3177376548
  C        78.6835952920       24.1964649095       16.1139229988
  C        78.5409424825       21.8693574266       19.7448495531
  C        77.8441001449       22.0370723138       20.8943994075
  C        76.7861305956       23.0188833918       21.1827407123
  C        75.6821369646       23.1962805892       20.3239186541
  C        74.6843789926       24.1229450871       20.6114816326
  C        74.7547409894       24.9285670608       21.7697467573
  C        75.8415586642       24.7185881915       22.6448428365
  C        76.8299399627       23.7777271687       22.3663180306
  C        73.7495135757       25.9222206416       22.1521130204
  C        72.7312337950       26.4629768657       21.4443237472
  C        72.4174491817       26.2891778763       20.0084952264
  C        73.2981619021       26.7894055432       19.0315549296
  C        73.0156471745       26.6894155150       17.6724844251
  C        71.8280244993       26.0715920533       17.2274277614
  C        70.9482879184       25.5694933846       18.2033637960
  C        71.2179772572       25.6711489610       19.5765668712
  C        78.8546683319       25.0162024908       14.9019494223
  C        77.9349733247       25.7768304504       14.2616608203
  C        76.4855676546       25.8447268027       14.4476277592
  C        75.7397113517       24.9046552040       15.1950000721
  C        74.3563714447       24.9968883213       15.2850309781
  C        73.6472245225       26.0194606978       14.6230051133
  C        74.3788861724       26.9303975371       13.8396668122
  C        75.7678385426       26.8497353703       13.7651251372
  C        71.4160012494       26.0341901240       15.8187796646
  C        72.1815801762       26.0970677113       14.7037715105
  C        70.2791919911       25.0999069566       20.5553038103
  S        69.9243422818       23.4000696971       20.5292483264
  C        68.9064332018       23.5120557971       21.9340735464
  C        68.8525348825       24.8210056792       22.3869862610
  C        69.6268186582       25.7153852731       21.6085264339
  C        68.2762716760       22.3269899758       22.5190505899
  C        67.6431164702       21.3691802356       21.7094496991
  C        67.0056481790       20.2373663064       22.2471582375
  C        67.0316300250       20.0729761759       23.6501445912
  C        67.6565651028       21.0116435473       24.4629489031
  C        68.2954454078       22.1460759089       23.9258599717
  C        66.4176165335       19.2591051875       21.3248061583
  C        65.4858845429       18.3059355944       21.5655125933
  C        64.7014883963       18.1110821688       22.7951135932
  C        63.9907487075       19.1756215465       23.3859107580
  C        63.2609681080       18.9940720462       24.5552840552
  C        63.2153234954       17.7355810839       25.1964991649
  C        63.8936476655       16.6643241645       24.5773241127
  C        64.6128462811       16.8433664663       23.3974816960
  C        62.4317796517       17.4625096841       26.4015106418
  C        61.8425447252       18.3220431132       27.2677670034
  C        62.0039956385       19.7815458102       27.3806891658
  C        63.2824212886       20.3423728744       27.5715971283
  C        63.4573656800       21.6950677636       27.8373765088
  C        62.3453956815       22.5651386156       27.9073479493
  C        61.0692627288       22.0074255690       27.7209639154
  C        60.8769352135       20.6413697807       27.4539698564
  C        69.0933714061       23.0300349047       24.7945825633
  C        68.7084198277       23.7125008636       25.8990005468
  C        67.3669954067       23.9528038761       26.4294996679
  C        66.1764447118       23.7145844696       25.7055916173
  C        64.9332691669       24.0017644665       26.2579815204
  C        64.8177029741       24.5491620556       27.5517822997
  C        66.0011955654       24.8465264752       28.2512198453
  C        67.2463677313       24.5435600370       27.7049533196
  C        62.4405445316       23.9923547638       28.2335356918
  C        63.5032775212       24.8285047274       28.1487338197
  C        59.5315846719       20.1094203472       27.2415618228
  S        58.2006471426       20.6114006677       28.2417207108
  C        57.0824527266       19.5720602863       27.4060676110
  C        57.7328914400       18.8740698496       26.3977629075
  C        59.1105407257       19.1750001328       26.3066745461
  C        55.6802119632       19.4997955744       27.8121486781
  C        54.9934658434       20.6598301534       28.2131062084
  C        53.6439291300       20.6386071497       28.6014777159
  C        52.9778436111       19.3922031956       28.5923573447
  C        53.6415447944       18.2382922074       28.1929236361
  C        54.9953838181       18.2562859282       27.8034780937
  C        53.0282746995       21.8882802710       29.0630269001
  C        51.7168695111       22.2135130143       29.1605994423
  C        50.5651052701       21.4402612713       28.6709259883
  C        50.5220523481       20.9478746266       27.3508308870
  C        49.4416511765       20.2014461541       26.8946927286
  C        48.3507110922       19.9062229361       27.7432058407
  C        48.3797454539       20.4384482351       29.0495112451
  C        49.4571489603       21.1971279380       29.5024769686
  C        47.1611057909       19.1687102624       27.3174440273
  C        46.9523759769       18.4399073268       26.1961355938
  C        47.9289377071       18.0007000853       25.1819959856
  C        49.0089142805       17.1717240455       25.5421689948
  C        49.8539197344       16.6178885115       24.5866890512
  C        49.6608432945       16.8820875071       23.2126854057
  C        48.5844358425       17.7100318342       22.8528766364
  C        47.7259760013       18.2796373685       23.8078336182
  C        55.7052994399       16.9899758072       27.5488289055
  C        55.4066447201       16.0103532864       26.6617075596
  C        54.4449932014       16.0044799269       25.5592826013
  C        53.8060818009       17.1628724594       25.0615315927
  C        52.9337685644       17.0901747377       23.9813171847
  C        52.6655562382       15.8637087336       23.3396643972
  C        53.3435343050       14.7185648013       23.7931595680
  C        54.2040139462       14.7879549080       24.8861266586
  C        50.4733153149       16.2844861097       22.1465168719
  C        51.7299779565       15.7835827509       22.2081737501
  C        46.6416652433       19.1727418075       23.3916193148
  S        45.6211201465       18.7721827254       22.0431679973
  C        44.7206100270       20.2467563438       22.1885651722
  C        45.1953755696       21.0081979869       23.2396948607
  C        46.2768646377       20.3973510929       23.9268226478
  C        43.5790154362       20.5046468439       21.2881919419
  C        43.7778623645       21.2409378163       20.1133841567
  C        42.7297002185       21.5010114908       19.2115541516
  C        41.4605038579       20.9619894159       19.5178562219
  C        41.2545716464       20.2242746213       20.6764132303
  C        42.3003639828       19.9697971742       21.5894684809
  C        43.0154799022       22.2540742200       17.9830233346
  C        42.1558709014       22.9632575983       17.2145189331
  C        40.7444618993       23.2366179181       17.5496554384
  C        39.6980974156       22.7770190362       16.7288484884
  C        38.3699928765       22.8932066760       17.1379870548
  C        38.0430471496       23.5129874385       18.3586130294
  C        39.0847188163       24.0772123737       19.1188238674
  C        40.4148926355       23.9207927067       18.7330822572
  C        36.6589025980       23.5537950029       18.8585962470
  C        35.8021514890       22.5081026566       18.9573174340
  C        36.0790530636       21.0818222979       18.7486918970
  C        37.3415900052       20.5289274003       19.0517999990
  C        37.5882651810       19.1662564615       18.9706379391
  C        36.5667365111       18.2657095179       18.5934091991
  C        35.3106443770       18.8073335212       18.2771808030
  C        35.0470281630       20.1867305758       18.3498251427
  C        42.0839896794       19.2516154500       22.8530058201
  C        41.1725932454       18.2870239005       23.1215694453
  C        40.2948596808       17.6205202256       22.1432246521
  C        40.8288955448       17.0157267960       20.9906452827
  C        39.9933577685       16.4460261785       20.0303327421
  C        38.5950352070       16.5080333087       20.1697411823
  C        38.0637823473       17.0582739167       21.3499769941
  C        38.9015803252       17.5838135053       22.3330469833
  C        36.7807227703       16.8188100273       18.4581586767
  C        37.6981917466       16.0501826752       19.0904668693
  C        33.7153917626       20.6884632786       18.0064271721
  S        32.2891226463       19.9425121447       18.6639907335
  C        31.2329163934       21.0687079153       17.8590166961
  C        31.9762495122       21.9754512394       17.1149186052
  C        33.3714978147       21.7637249627       17.2018919947
  C        29.7830922570       20.9974199587       18.0379154271
  C        29.1369700613       19.7530984856       18.1588485245
  C        27.7464876494       19.6383348496       18.3233750428
  C        26.9896152019       20.8303683295       18.3722458068
  C        27.6117330174       22.0667532146       18.2541056285
  C        29.0069039467       22.1854834090       18.0957462652
  C        27.1677391436       18.3041799983       18.5175217192
  C        25.8856165110       17.8925918013       18.3682791549
  C        24.7554648920       18.6420531768       17.7967472616
  C        24.8583487515       19.2831753508       16.5450805452
  C        23.7845144384       19.9772157228       15.9992663231
  C        22.5553988435       20.0780870604       16.6898431770
  C        22.4474232073       19.4055392299       17.9260218314
  C        23.5183785378       18.6940468168       18.4640016005
  C        21.3703523143       20.7562867055       16.1635462730
  C        21.2441792910       21.6234635436       15.1286606733
  C        22.2998395171       22.3046749071       14.3620487757
  C        23.2865459299       23.0510489583       15.0391294564
  C        24.2261830948       23.8162295743       14.3611365004
  C        24.2327577353       23.8539654315       12.9481563658
  C        23.2494784662       23.1125358016       12.2722854027
  C        22.2796861848       22.3453541451       12.9440906089
  C        29.6353700410       23.5168288240       18.1409162548
  C        29.3759026699       24.6000819576       17.3700053094
  C        28.5753297954       24.7080858950       16.1499355131
  C        28.1487688338       23.5976816205       15.3860046472
  C        27.4212160099       23.7714980269       14.2140843173
  C        27.0966692870       25.0588490770       13.7401819274
  C        27.5696540917       26.1681301266       14.4647336152
  C        28.2831675590       25.9939508537       15.6485500509
  C        25.1507234182       24.6760328316       12.1524020190
  C        26.3292423631       25.2475818424       12.4992651037
  C        21.2906718651       21.6139661070       12.1441510166
  C        20.7168341182       22.0147862777       10.9464730967
  C        19.8441006899       21.0475643392       10.3865094979
  C        19.7646626787       19.9044787627       11.1543203382
  S        20.7407958129       20.0148514546       12.5641059436
  H        82.8462162175       12.7619736880       12.7245432206
  H        84.2289287797       12.2477747806       14.7118487076
  H        84.2549665524       16.4228525720       15.7672205932
  H        82.8477912046       16.9371932424       13.8092151810
  H        84.8327840090       13.1153458276       17.1219541576
  H        86.6879976892       14.2129387275       17.9713658869
  H        88.0878313612       16.0686487835       18.3173451114
  H        89.5963472382       17.8144393088       17.4178013357
  H        87.9648672215       17.1904553678       13.4819770409
  H        86.4878800425       15.4195523581       14.3657800584
  H        90.8214496941       18.5696453174       15.1418872472
  H        90.3238653804       20.3644706829       13.7558024618
  H        86.9285402492       19.2584438488       15.1203000538
  H        84.8206021983       20.3190658181       14.4051400583
  H        86.9745263881       22.7085454654       11.5423148742
  H        89.0879143955       21.6125864068       12.2223635445
  H        84.5648509505       23.3299253907       12.4089935721
  H        82.4328653109       22.3853777913       12.1691266497
  H        84.7939427001       19.6360688465       11.3517511210
  H        84.0585944997       17.3115369539       10.8979838989
  H        80.1339600841       18.2670747516       12.3976962680
  H        80.8660274165       16.1750919700       10.4532682906
  H        81.5153204261       14.1850057675       11.4810091523
  H        77.8852129664       22.6832720104       13.4991806854
  H        79.1044544528       21.1901965758       11.6775193825
  H        79.2999730014       21.0583676502       17.3253590646
  H        77.8521367411       24.5428116396       19.4177992109
  H        77.9690419273       25.8376557204       17.3142481067
  H        79.2260867212       21.0158134164       19.7132035525
  H        78.0925479653       21.3629499534       21.7211999248
  H        75.6105288324       22.5805465947       19.4248855272
  H        73.8303705663       24.2162444569       19.9405128696
  H        75.9043594766       25.3117690049       23.5600321997
  H        77.6617820358       23.6398376725       23.0602980381
  H        73.8367590422       26.2570045815       23.1914468558
  H        72.0699484556       27.1398216878       21.9937743832
  H        74.2190508700       27.2752309458       19.3609990562
  H        73.7053553752       27.1197394802       16.9461003696
  H        70.0125054484       25.0994369068       17.8899785456
  H        79.8689220247       25.0107939709       14.4862112566
  H        78.3083172861       26.3940003898       13.4377015743
  H        76.2523436491       24.0823458360       15.6942230321
  H        73.7974193422       24.2581314850       15.8625638197
  H        73.8494616803       27.7192093851       13.3006429718
  H        76.3190914371       27.5748821197       13.1627824893
  H        70.3321907653       25.9977100529       15.6687307913
  H        71.6585627810       26.2002133337       13.7472780009
  H        68.2515060309       25.1174233903       23.2459995457
  H        69.6903660937       26.7873043532       21.7941331499
  H        67.6295221873       21.5246489448       20.6273370424
  H        66.5827318656       19.1878639389       24.0994644634
  H        67.6948367510       20.8559946636       25.5432340074
  H        66.8285227960       19.2954860869       20.3106232368
  H        65.2849407104       17.5945637160       20.7574974741
  H        64.0138264917       20.1551137488       22.9043425609
  H        62.7040941523       19.8330279947       24.9732017546
  H        63.8490247061       15.6749111414       25.0380151267
  H        65.1351499276       15.9976322859       22.9447225968
  H        62.2527292011       16.3976449037       26.5844537974
  H        61.1654789601       17.8840696791       28.0106241083
  H        64.1485731103       19.6777588255       27.5475170789
  H        64.4598324627       22.0806567132       28.0208145200
  H        60.1936759994       22.6607848498       27.7606443991
  H        70.1466749899       23.1178554553       24.5025732561
  H        69.5053361814       24.2164246743       26.4561637866
  H        66.2311164206       23.3086882968       24.6951757816
  H        64.0245559815       23.8091228813       25.6844016710
  H        65.9371726968       25.2942498850       29.2454536142
  H        68.1534890277       24.7665822638       28.2711373048
  H        61.5172699068       24.4196468714       28.6382341908
  H        63.3785595594       25.8303453051       28.5732722342
  H        57.2113215570       18.1875286703       25.7325559676
  H        59.7839594920       18.7480089473       25.5643478176
  H        55.5270292328       21.6138706661       28.2008130053
  H        51.9432649037       19.3276314816       28.9278101979
  H        53.1220371556       17.2780082304       28.2151419809
  H        53.7454707054       22.6409606314       29.4068875536
  H        51.4763499573       23.1597452774       29.6567626664
  H        51.3550568815       21.1664031143       26.6794744722
  H        49.4320324684       19.8519367063       25.8619923965
  H        47.5354280721       20.2483504833       29.7159638852
  H        49.4562463410       21.5898928834       30.5213345114
  H        46.3024941702       19.2814858122       27.9876031667
  H        45.9253827406       18.1045681868       26.0094684925
  H        49.1522560952       16.9342965810       26.5983934621
  H        50.6553308823       15.9502555121       24.9017237426
  H        48.4198876938       17.9419018574       21.7974745188
  H        56.5798433982       16.8246422122       28.1890151318
  H        56.0121501642       15.1002412679       26.7287106433
  H        54.0093299335       18.1305547125       25.5197041561
  H        52.4487310860       17.9954961255       23.6112291094
  H        53.1709263706       13.7618856748       23.2952007386
  H        54.7097206287       13.8838811212       25.2337147279
  H        49.9618640703       16.2090944758       21.1812639900
  H        52.1020090649       15.2636137729       21.3190131542
  H        44.7629869963       21.9736444821       23.5031734812
  H        46.7981544582       20.8440297177       24.7728679390
  H        44.7800416754       21.6201535540       19.8993211228
  H        40.6296072787       21.1184709013       18.8298248970
  H        40.2580253410       19.8388685175       20.8950596127
  H        44.0574439829       22.2049784909       17.6502273659
  H        42.5327104065       23.3718168949       16.2713884236
  H        39.9359076844       22.2721307016       15.7903068076
  H        37.5683900044       22.4814108802       16.5215164810
  H        38.8459251954       24.5947206833       20.0506008039
  H        41.2200077691       24.3065631178       19.3620116112
  H        36.3014650959       24.5283156099       19.2076326217
  H        34.7802143944       22.7330573471       19.2791607767
  H        38.1388354327       21.1965526642       19.3803589293
  H        38.5852153458       18.7879905233       19.1966047003
  H        34.5107164156       18.1412386654       17.9439892777
  H        42.7286704562       19.5728075895       23.6772890457
  H        41.0719201378       17.9649519967       24.1633963374
  H        41.9120658768       17.0091128661       20.8523294051
  H        40.4236654735       15.9959421135       19.1330964810
  H        36.9799698421       17.0864831588       21.4783930734
  H        38.4718776656       18.0226512926       23.2361512426
  H        36.1235248260       16.3223878668       17.7368728053
  H        37.7851398335       15.0027578603       18.7842568514
  H        31.5122098480       22.7501202149       16.5066858492
  H        34.1167856514       22.3592683757       16.6746834630
  H        29.7397769998       18.8425912069       18.1034339533
  H        25.9135585898       20.7822891827       18.5371721004
  H        27.0201539761       22.9819749395       18.3251586045
  H        27.8808714738       17.5546451907       18.8768419445
  H        25.6524004993       16.8763428069       18.7042169169
  H        25.7982509915       19.2133171707       15.9935541232
  H        23.8890373917       20.4360285248       15.0157591575
  H        21.4997057871       19.4451193368       18.4676624487
  H        23.4060275924       18.1866478291       19.4242521115
  H        20.4392241553       20.4713018695       16.6645091919
  H        20.2227222257       21.8912641710       14.8361031825
  H        23.2790012377       23.0452836378       16.1312108945
  H        24.9460346178       24.4085043177       14.9251253391
  H        23.2476502252       23.1115192523       11.1799991484
  H        30.3930740264       23.6365629341       18.9241047071
  H        29.8781672656       25.5293890461       17.6584299118
  H        28.4051969670       22.5889924082       15.7109732599
  H        27.1004188907       22.9015793047       13.6378177924
  H        27.3527264942       27.1757298829       14.1032327232
  H        28.6278680406       26.8682491674       16.2054213423
  H        24.7933507621       24.8848918442       11.1385609238
  H        26.7752272638       25.9346735471       11.7717570965
  H        20.9071053636       22.9942989718       10.5064163611
  H        19.2871114523       21.1889005280        9.4612207415
  H        19.1740206513       19.0102374796       10.9752402775
