     410
 i =       65, E =     -1579.1753227485
  C        15.2630308985       17.6471063398       23.2358177904
  C        15.4812882102       17.3767656578       24.6114984835
  C        16.8256039561       17.3602740744       24.9584092247
  S        17.8149798363       17.6705117177       23.5566714414
  C        16.4369577591       17.8363962284       22.5381770657
  C        17.4369105607       17.1090863598       26.2420771210
  S        16.5754679023       16.2497308238       27.4888351151
  C        17.9249031186       16.3374303816       28.5879507776
  C        18.9924846113       16.9908928408       27.9883163510
  C        18.7180698823       17.4297463554       26.6738575914
  C        17.8397839433       15.7744328576       29.9352295494
  C        16.6627184717       15.9023068458       30.6958187706
  C        16.5560915253       15.4040858270       32.0054745763
  C        17.6781569623       14.7406217386       32.5502505256
  C        18.8470944358       14.6064430561       31.8119197219
  C        18.9576951191       15.1058493336       30.4998671988
  C        20.1591926689       14.8048996346       29.7020996663
  C        21.4523228427       15.0916276324       29.9845905992
  C        22.0110570882       15.9601469162       31.0210451491
  C        23.4068104106       15.9478911064       31.2268239516
  C        24.0136187826       16.7923241014       32.1542844663
  C        23.2439459107       17.6719114226       32.9356771890
  C        21.8530691638       17.7135807771       32.7107992477
  C        21.2495298985       16.8843096281       31.7718164610
  C        23.8815730430       18.5505864629       33.9297343194
  C        23.5325496211       18.7095353527       35.2282648868
  C        22.5582789729       17.9528896538       36.0240301497
  C        22.0453938277       18.5381538996       37.1931883958
  C        21.1426339297       17.8652560809       38.0356232304
  C        20.7491453444       16.5413755074       37.7151542467
  C        21.2647097335       15.9558219115       36.5427149649
  C        22.1509622817       16.6361222990       35.7149448647
  C        20.5894850121       18.5356057659       39.2118020857
  S        21.5839829458       19.5676705476       40.1977413626
  C        20.2564173230       19.9618015398       41.2521388706
  C        19.0944772922       19.3261958424       40.8318376066
  C        19.2858618170       18.5182333517       39.6883153769
  C        19.9382166699       15.7374140773       38.6484148880
  C        18.7634995923       15.1061395231       38.4151271490
  C        17.8628552349       15.2116452908       37.2671224501
  C        17.9480471971       16.2299697248       36.2906972202
  C        17.0298707643       16.3018626909       35.2496160738
  C        15.9771611661       15.3709788951       35.1383534382
  C        15.8545452889       14.3891722897       36.1378552905
  C        16.7853270462       14.3062179855       37.1719023782
  C        15.2730417924       15.5293414893       32.7067195444
  C        15.0088936515       15.4444443314       34.0326293312
  C        20.4609473473       20.8514705404       42.3663268569
  S        19.1601132137       21.8327170974       42.9786124621
  C        20.1896114518       22.5810637586       44.1674600977
  C        21.4839519459       22.0894923246       44.0669850103
  C        21.6374128203       21.1157067781       43.0565535657
  C        19.6662060958       23.5875742562       45.0883912070
  C        18.3838598913       23.4516282532       45.6490413271
  C        17.8587237082       24.3824005516       46.5607657338
  C        18.6638725971       25.4921467700       46.9026075841
  C        19.9322291413       25.6419040819       46.3539647669
  C        20.4574194735       24.7139046429       45.4347817596
  C        21.7311345503       25.0006011576       44.7486872378
  C        22.9542331474       25.2053184515       45.2922362804
  C        23.4086663945       24.9869883156       46.6657108816
  C        24.6821680145       25.4655431396       47.0393325699
  C        25.1935035129       25.2497826266       48.3177056146
  C        24.4398075744       24.5628839361       49.2855503982
  C        23.1852084084       24.0459226953       48.9054049453
  C        22.6823194651       24.2461641832       47.6250512159
  C        24.9570749349       24.3693239736       50.6502985142
  C        24.3265465086       24.6724920128       51.8095600356
  C        23.0682096646       25.3990935946       52.0170302707
  C        22.4073163258       25.2578608265       53.2486439609
  C        21.2249883104       25.9556700958       53.5487522220
  C        20.6833330918       26.8523350656       52.5925109817
  C        21.3455257809       26.9910855318       51.3581235822
  C        22.5122761949       26.2910684278       51.0722787643
  C        20.5451478116       25.7606923800       54.8280554641
  S        21.4470064627       25.6982712000       56.3143235285
  C        20.0050903274       25.4678502251       57.2629948938
  C        18.8824901575       25.4474600079       56.4430434294
  C        19.1871299304       25.6206983384       55.0752395131
  C        19.5515242975       27.7365919467       52.9294515657
  C        18.3699421371       27.8804100107       52.2846148460
  C        17.7893324413       27.0592714087       51.2223576104
  C        18.2696548966       25.7767673508       50.8748673140
  C        17.6497132151       25.0246190116       49.8841156046
  C        16.5166289949       25.5106158678       49.2018058480
  C        15.9989313729       26.7610818939       49.5829965685
  C        16.6303846810       27.5226863398       50.5650430871
  C        16.4877036514       24.1877485858       47.0469717025
  C        15.8820655351       24.7204186582       48.1345477541
  C        20.0748514603       25.4157109665       58.6991065673
  S        18.6535937875       25.7209180890       59.6579332159
  C        19.5432860267       25.5935368657       61.1471397809
  C        20.8833809270       25.3384451746       60.8942527439
  C        21.1826573643       25.2301646451       59.5183929995
  C        18.8703366392       25.7697090854       62.4322680531
  C        17.6190276053       25.1778141594       62.6740531439
  C        16.9547530276       25.3072758705       63.9051702186
  C        17.5811523968       26.0761973626       64.9121110742
  C        18.8169676280       26.6709681181       64.6838537715
  C        19.4828684600       26.5446226111       63.4499443788
  C        20.7032057452       27.3273007863       63.1798963201
  C        21.8818401853       27.3141348463       63.8458628633
  C        22.3569001719       26.3848172622       64.8708019095
  C        23.5404619980       26.7002610453       65.5708581849
  C        24.0744468529       25.8355648106       66.5242855933
  C        23.4320665038       24.6232895692       66.8318820081
  C        22.2722946236       24.2837482229       66.1063209483
  C        21.7476789307       25.1395852954       65.1447084848
  C        23.9710608284       23.7190330593       67.8609463011
  C        23.2982134982       23.1796071282       68.9050188847
  C        21.9396397102       23.4699275344       69.3785112793
  C        21.3003433412       22.5330178008       70.2077577631
  C        20.0207010251       22.7585734656       70.7440610629
  C        19.3541631883       23.9787459219       70.4646862956
  C        19.9942914825       24.9141551417       69.6300802690
  C        21.2574229688       24.6754613739       69.1011908551
  C        19.3629512555       21.7454370965       71.5665603763
  S        20.2486511802       20.8532079759       72.7703274946
  C        18.8392668975       19.9414969670       73.2333082266
  C        17.7380225292       20.3323143540       72.4802529378
  C        18.0326894894       21.3500711168       71.5479471992
  C        18.0964261398       24.3351793806       71.1476785221
  C        16.9083637756       24.6848924706       70.6022357757
  C        16.4650372435       24.5986573219       69.2110779186
  C        17.1400488795       23.8578788575       68.2146272267
  C        16.6437595496       23.7857799857       66.9180744475
  C        15.4487292965       24.4395917930       66.5570160530
  C        14.7405338476       25.1269238662       67.5587684370
  C        15.2460636422       25.2124480285       68.8544076606
  C        15.6256195158       24.7016132005       64.0476569021
  C        14.9443903630       24.3892703575       65.1753957289
  C        18.9052084927       18.9633598130       74.2864416022
  S        17.4452483848       18.3809113370       75.0352494790
  C        18.3254325159       17.3117220550       76.0896409884
  C        19.6905670076       17.4226428836       75.8637095223
  C        20.0186936979       18.3539573146       74.8537442983
  C        17.6199834486       16.4828015679       77.0648961130
  C        16.5043636613       16.9890977274       77.7556817382
  C        15.8241383623       16.2454991193       78.7341293177
  C        16.2897741212       14.9397045948       79.0074156881
  C        17.3882040226       14.4240450853       78.3291013944
  C        18.0688580088       15.1672883156       77.3457512682
  C        19.1278258060       14.5305448127       76.5411313881
  C        20.2861112792       13.9742773031       76.9640527024
  C        20.9157517487       14.0302684977       78.2834649362
  C        22.0271729905       13.1981110284       78.5323891294
  C        22.7059598588       13.2356827204       79.7484278033
  C        22.2840738871       14.0948592748       80.7784853915
  C        21.1998839193       14.9576699941       80.5213835018
  C        20.5334899218       14.9329699643       79.3017839390
  C        22.9697443890       14.1082748895       82.0804246147
  C        22.3989171700       13.9857013886       83.3025253355
  C        21.0112014504       13.6562075246       83.6473876830
  C        20.5488792663       13.9691587712       84.9367461490
  C        19.2522715445       13.6410620444       85.3687250820
  C        18.3794168672       12.9524414723       84.4883252184
  C        18.8429718427       12.6429536659       83.1954210355
  C        20.1270966115       12.9769400964       82.7797362816
  C        18.7964489283       14.0018137780       86.7095532202
  S        19.8353339961       13.7899469806       88.0886588462
  C        18.6220117957       14.3890527195       89.1842307668
  C        17.4653054707       14.7269473342       88.4916943279
  C        17.5627799107       14.5025529601       87.1009947629
  C        17.0773040743       12.4357724309       84.9518235884
  C        15.8481881918       12.6697904128       84.4362103641
  C        15.4374243928       13.6495894304       83.4305930988
  C        16.2419865938       14.7350020344       83.0174729766
  C        15.7781359453       15.6534580129       82.0824151293
  C        14.4897238517       15.5390821932       81.5237222776
  C        13.6626515585       14.4953922645       81.9745951850
  C        14.1330904823       13.5658464474       82.8998777618
  C        14.6345338404       16.8374799258       79.3578786823
  C        14.0153386602       16.4989148877       80.5134774789
  C        18.8620033710       14.3893097063       90.6032845498
  S        17.5270811987       14.2993945268       91.7172234008
  C        18.5875221727       14.2317235050       93.0947125005
  C        19.9144850892       14.2631906483       92.6895025477
  C        20.0707098535       14.3579219437       91.2888604317
  C        18.0421889231       14.1324169644       94.4469215594
  C        16.9249887472       14.8968970362       94.8259084116
  C        16.3833241827       14.8406505051       96.1208163099
  C        16.9925918612       13.9680208334       97.0503000570
  C        18.0977828104       13.2059368566       96.6887615084
  C        18.6410658909       13.2588023570       95.3908250289
  C        19.7020771463       12.3138734437       94.9944589127
  C        20.9345050615       12.1519679311       95.5312255780
  C        21.6447903783       12.9942592598       96.4944414321
  C        22.8398433629       12.5077331555       97.0652610979
  C        23.5887516891       13.2785030593       97.9526077366
  C        23.1604748839       14.5661842172       98.3216083529
  C        21.9896062829       15.0732109335       97.7229125721
  C        21.2504647245       14.3097053790       96.8264188135
  C        23.9266241457       15.3727302470       99.2860762057
  C        23.4514023041       15.9801032178      100.3993021137
  C        22.1277328831       15.8687468084      101.0236590326
  C        21.7265965170       16.8628578505      101.9324511170
  C        20.4988478852       16.8045137022      102.6159949118
  C        19.6381152232       15.6961378762      102.4023001804
  C        20.0401438441       14.7045383993      101.4879000023
  C        21.2543557554       14.7779639343      100.8155566410
  C        20.0961127431       17.8736565739      103.5275316058
  S        21.2459609502       18.6275245792      104.5961160961
  C        20.0376518272       19.6899525371      105.2624898730
  C        18.8010847249       19.4486685191      104.6772955213
  C        18.8346745773       18.4254479246      103.7050649890
  C        18.4228068295       15.4969677295      103.2135570672
  C        17.1481763883       15.3209815242      102.7924148357
  C        16.5778347607       15.4967371573      101.4565042485
  C        17.2413305958       16.1594697672      100.3992931379
  C        16.6277279019       16.3269482437       99.1631939584
  C        15.3213479262       15.8538059241       98.9272413293
  C        14.6345991023       15.2449564536       99.9921341441
  C        15.2556622175       15.0615993083      101.2260244864
  C        15.1825723506       15.6320782972       96.4121010664
  C        14.6823293278       16.0137696128       97.6108014500
  C        20.3656819753       20.6137305524      106.3180399520
  S        19.1409821078       21.1207388036      107.4475279465
  C        20.2564181483       22.1381241804      108.3129904680
  C        21.5196199146       22.0673130940      107.7429939121
  C        21.5849287347       21.2042111235      106.6257863003
  C        19.8268138238       22.8896263832      109.4931539192
  C        18.9744594795       22.2983192001      110.4424870322
  C        18.5864999955       22.9605961872      111.6193594247
  C        19.0664043677       24.2728924415      111.8234936627
  C        19.9014779571       24.8739706900      110.8885172989
  C        20.2941240550       24.2100684923      109.7102600827
  C        21.0648578525       24.9288537164      108.6785831861
  C        22.2845197954       25.5036151952      108.7965706043
  C        23.2584786324       25.3981420184      109.8838380907
  C        24.3767902666       26.2583314575      109.8711676436
  C        25.3690444234       26.1761792255      110.8459544876
  C        25.2727910070       25.2400982585      111.8912782345
  C        24.1781686531       24.3525066735      111.8871072302
  C        23.1962303253       24.4234700092      110.9053299598
  C        26.3087454148       25.1685416356      112.9344336057
  C        26.1362665140       25.1907692059      114.2779136879
  C        24.9280616616       25.4456081660      115.0683642152
  C        24.9453803578       25.1178833663      116.4399732927
  C        23.8599132247       25.3950385152      117.2688680016
  C        22.6964097428       25.9959707953      116.7559824238
  C        22.6814326551       26.3443694648      115.3902943032
  C        23.7725132576       26.0858425134      114.5665003232
  C        21.5666398019       26.3158557442      117.6464162183
  C        20.2562915467       26.0033515683      117.4998846795
  C        19.5918617845       25.1363582702      116.5230418788
  C        20.2634265505       24.1729772907      115.7380549664
  C        19.5642531958       23.3447469027      114.8669466012
  C        18.1623029110       23.4261902333      114.7471643779
  C        17.4833793579       24.3511377050      115.5610813207
  C        18.1858452223       25.1940392126      116.4209022358
  C        17.6554608598       22.2889005601      112.5333006998
  C        17.4192268570       22.5312418247      113.8445841360
  H        14.2781270877       17.7082486023       22.7755999498
  H        14.6854620839       17.2167104578       25.3388760724
  H        16.5684542140       18.0640369309       21.4842300214
  H        19.9303219009       17.1731786996       28.5109040255
  H        19.4238451183       17.9873510442       26.0580428808
  H        15.8112049858       16.4309702607       30.2593557251
  H        17.6188946305       14.3038569762       33.5464776172
  H        19.6985558887       14.0689183979       32.2344040054
  H        19.9641101950       14.2554912574       28.7736842125
  H        22.2005633062       14.6654586938       29.3081308939
  H        24.0207932928       15.2604428288       30.6407086406
  H        25.0957410036       16.7574750861       32.2957417958
  H        21.2482188742       18.4223057773       33.2804482781
  H        20.1747503750       16.9605805498       31.6051131483
  H        24.7276020608       19.1437657394       33.5663290730
  H        24.0665703418       19.4840363347       35.7884960702
  H        22.3306601815       19.5636368899       37.4428488809
  H        20.9804811770       14.9279021984       36.3077001386
  H        22.5560932864       16.1370086859       34.8348076758
  H        18.1445863417       19.4335730238       41.3556362330
  H        18.4945158301       17.9499218207       39.2013693035
  H        20.3693970864       15.6292289188       39.6506781367
  H        18.3898019357       14.4651914011       39.2206165439
  H        18.7361501405       16.9799577616       36.3599514242
  H        17.1119735058       17.0955082050       34.5042428081
  H        15.0342139789       13.6704156661       36.0849366913
  H        16.6816615114       13.5273061767       37.9306410405
  H        14.4118717977       15.6731386219       32.0458382314
  H        13.9542018699       15.4370990119       34.3279175803
  H        22.2820450001       22.4085420024       44.7353513629
  H        22.5697800496       20.5917514423       42.8465406925
  H        17.7862313474       22.5757241129       45.3829963186
  H        18.2786266311       26.2551685953       47.5778549863
  H        20.5321378235       26.5197217408       46.6033460529
  H        21.6535693784       25.0766741371       43.6575590265
  H        23.7440204589       25.5226071897       44.6033874705
  H        25.2753902026       26.0174709635       46.3067607317
  H        26.1780210470       25.6400649092       48.5839621862
  H        22.6081589946       23.4735651579       49.6346415247
  H        21.7174138616       23.8152012480       47.3565811692
  H        25.9560667468       23.9267549658       50.7265841906
  H        24.8296550368       24.3723924246       52.7345315703
  H        22.8081298354       24.5630250041       53.9913605781
  H        20.9445376908       27.6997724139       50.6302092261
  H        23.0178177254       26.4567522104       50.1216908110
  H        17.8740482099       25.3013220910       56.8305790116
  H        18.4465297826       25.6173041153       54.2764325050
  H        19.7194403545       28.3730190102       53.8065000867
  H        17.7184146810       28.6857400237       52.6394950103
  H        19.1319535678       25.3632507216       51.3982258294
  H        18.0373282260       24.0369444181       49.6256277638
  H        15.1098518894       27.1492129407       49.0813549380
  H        16.2238168080       28.4994714130       50.8367299758
  H        15.8705749498       23.5498359797       46.4059842216
  H        14.8065917798       24.5452765081       48.2432363611
  H        21.6127897895       25.2089646082       61.6927478747
  H        22.1756488528       25.0136833576       59.1240678552
  H        17.1616593404       24.5770970347       61.8831062860
  H        17.0789669305       26.2329019310       65.8661648053
  H        19.2750136144       27.2883601001       65.4595368920
  H        20.6189857498       28.0214816783       62.3352921833
  H        22.6186374924       28.0659810884       63.5438369693
  H        24.0439926897       27.6455388783       65.3569368538
  H        24.9863016769       26.1097186278       67.0587924243
  H        21.7880316429       23.3254441613       66.3054272748
  H        20.8608065473       24.8380194353       64.5868404623
  H        25.0281907184       23.4519335183       67.7576658892
  H        23.8417907412       22.4509673276       69.5151340079
  H        21.7993133115       21.5845604088       70.4231843284
  H        19.4915208853       25.8628068329       69.4315785248
  H        21.7372518968       25.4405515882       68.4918520044
  H        16.7562528128       19.8724398039       72.5933300724
  H        17.3085401584       21.7706904824       70.8517442668
  H        18.1595602102       24.3362393351       72.2423663813
  H        16.1365463925       25.0278763771       71.2993838616
  H        18.0580342519       23.3257946584       68.4655371954
  H        17.1809134228       23.2135803953       66.1587147235
  H        13.8008587123       25.6227377526       67.3068505006
  H        14.6911021881       25.7652287474       69.6157626903
  H        15.1127258821       24.5164122302       63.0980502814
  H        13.9067982024       24.0603325753       65.0562856505
  H        20.4244918183       16.8562213307       76.4349769946
  H        21.0369946480       18.5723803886       74.5317505368
  H        16.1727390288       18.0084203374       77.5409023170
  H        15.7672886132       14.3176117932       79.7335216322
  H        17.7217848465       13.4038916823       78.5303427764
  H        18.9221213822       14.4949083822       75.4647029034
  H        20.8784265670       13.4501411337       76.2061014740
  H        22.3573934629       12.5107935689       77.7500048364
  H        23.5562149609       12.5719547550       79.9182663384
  H        20.8901325464       15.6594984640       81.2986561763
  H        19.7132379749       15.6294055827       79.1273078951
  H        24.0568867014       14.2342945231       82.0483439957
  H        23.0593466268       14.1109746008       84.1666955075
  H        21.2084195488       14.5075525157       85.6224623175
  H        18.1809435629       12.0914538027       82.5247115104
  H        20.4626576906       12.6838304452       81.7852969055
  H        16.5850273671       15.1380571988       88.9860982398
  H        16.7704424845       14.7244786637       86.3874563833
  H        17.1357551793       11.7568210800       85.8109857300
  H        15.0230921269       12.0904490660       84.8638448845
  H        17.2366644083       14.8633996587       83.4448011097
  H        16.4156430618       16.4835693110       81.7713001518
  H        12.6529923164       14.3991462612       81.5701561249
  H        13.4822781825       12.7512481786       83.2252836758
  H        14.1751873333       17.6420149336       78.7741959928
  H        13.0636388835       16.9939195414       80.7332642057
  H        20.7408230564       14.2463068233       93.3988118886
  H        21.0345441101       14.4181939093       90.7829392942
  H        16.4805202232       15.5747658349       94.0921022731
  H        16.5762320614       13.8660208046       98.0517530325
  H        18.5415764066       12.5149032261       97.4087916729
  H        19.4298298671       11.6474845547       94.1674731891
  H        21.5197715589       11.3057182027       95.1560807813
  H        23.1791279123       11.5030923896       96.8032114668
  H        24.5040151618       12.8722002470       98.3881237455
  H        21.6690868901       16.0877212585       97.9691906507
  H        20.3606956206       14.7394473741       96.3654706838
  H        24.9931864020       15.4943104883       99.0683770645
  H        24.1533536914       16.6170911118      100.9469422569
  H        22.3779118141       17.7254105227      102.0968864969
  H        19.3880961335       13.8411638144      101.3398625021
  H        21.5462405301       13.9701864019      100.1457987595
  H        17.9093750187       20.0201428649      104.9347861054
  H        17.9739863230       18.1124495606      103.1163707191
  H        18.5969719829       15.4681851176      104.2957105327
  H        16.4129363143       15.0712106925      103.5644253172
  H        18.2449921108       16.5559699343      100.5557402997
  H        17.1562683421       16.8395766393       98.3566491339
  H        13.6140162091       14.8889284925       99.8373459617
  H        14.7127387427       14.5690447792      102.0358348288
  H        14.6045689488       15.9146785091       95.5262836027
  H        13.6998630780       16.4979711536       97.6100901085
  H        22.3720687883       22.6135255367      108.1448723350
  H        22.4874199106       21.0256063407      106.0412648441
  H        18.6291127894       21.2755311035      110.2713823424
  H        18.7569455201       24.8302580506      112.7075547906
  H        20.2431566782       25.8991572940      111.0444672201
  H        20.5624449339       25.0180930294      107.7081146311
  H        22.6304887625       26.0895864986      107.9387661659
  H        24.4602233159       27.0034174604      109.0768593953
  H        26.2181743544       26.8621951449      110.8177390287
  H        24.1118486212       23.5943582713      112.6700957009
  H        22.3749561064       23.7067999200      110.9193506348
  H        27.3381452122       25.0852154423      112.5705871697
  H        27.0363800964       25.0378280650      114.8826316043
  H        25.8340820059       24.6404885287      116.8585701575
  H        23.9018807382       25.1297102287      118.3269741231
  H        21.8002464940       26.8453796991      114.9839867455
  H        23.7405617938       26.4028617848      113.5242709400
  H        21.8328222504       26.8888535153      118.5414226759
  H        19.5769713449       26.4247890285      118.2486188922
  H        21.3431846775       24.0609141403      115.8312334092
  H        20.1011686969       22.6025882887      114.2725950320
  H        16.3950448677       24.4193248794      115.5016566559
  H        17.6398737376       25.9127516255      117.0362921667
  H        17.0474094308       21.5086251617      112.0634082463
  H        16.5831827884       21.9925162874      114.3031150403
