     410
 i =       72, E =     -1579.1713426632
  S       111.1507461802       13.4959982387       35.0498728247
  C       111.0149804308       14.6253851472       36.3708039064
  C       112.1597627983       14.5850290809       37.1566833979
  C       113.1201148232       13.6474547115       36.6979875080
  C       112.7079290025       12.9754024797       35.5672461909
  C       109.8425554397       15.4549859245       36.5147717413
  S       109.8888362507       16.8908254313       37.4987000779
  C       108.2294353421       17.2849368188       37.1416093180
  C       107.6877626795       16.3433295426       36.2772693045
  C       108.5900292991       15.3119691294       35.9294851057
  C       107.5950315853       18.4539178644       37.7496639952
  C       107.8491467386       18.7564177211       39.1019820005
  C       107.2167691597       19.8207916853       39.7539228664
  C       106.3179005612       20.6170399387       39.0167772220
  C       106.0910143599       20.3611442534       37.6697556956
  C       106.7179257201       19.2892151164       36.9987589562
  C       106.6147228999       19.1402463014       35.5430698640
  C       105.5997959537       19.4913099789       34.7141943127
  C       104.2447638356       19.9238151652       35.0687343200
  C       103.6201667085       20.9514479031       34.3366647571
  C       102.3429877250       21.3938056752       34.6710532032
  C       101.6167454122       20.8136882376       35.7333061505
  C       102.2239118840       19.7398718254       36.4254434250
  C       103.5066923317       19.3131656197       36.1044128979
  C       100.2592687237       21.2956235826       35.9854179490
  C        99.4000286381       20.9926474685       36.9879428342
  C        99.6675016778       20.2451050249       38.2292691363
  C        98.8890433221       19.1167322522       38.5948079028
  C        99.0909885686       18.5231451761       39.8540851816
  C       100.0588448963       18.9926119547       40.7576991501
  C       100.8256292730       20.1159122326       40.3780337212
  C       100.6302578967       20.7187840368       39.1415018963
  C        97.9171651465       18.5535565714       37.6573234387
  C        98.0376010507       18.3823026193       36.2850146324
  C        96.9154011745       17.7601961932       35.6955482517
  C        95.9138835495       17.4534206080       36.6092133738
  S        96.3892746571       17.9310758169       38.2153081314
  C       100.1788873782       18.3426883839       42.0674352597
  C       101.2295501561       18.3194866530       42.9230923756
  C       102.6030947329       18.7942615481       42.7000759540
  C       103.3148765738       18.4809285269       41.5238165552
  C       104.6271538824       18.9018421784       41.3388666609
  C       105.2902320338       19.6701258312       42.3227485909
  C       104.5827990693       19.9588397078       43.5088776815
  C       103.2736766782       19.5226132400       43.7002979830
  C       107.5242282048       20.1254523760       41.1663016839
  C       106.6838338642       20.1105887239       42.2267113805
  C        94.6413683981       16.8199898979       36.3733729938
  S        94.4033152530       15.8211600006       34.9675325154
  C        92.7607083824       15.4536389532       35.4133711167
  C        92.4367830407       16.0730637328       36.6134804565
  C        93.4904226402       16.8441813542       37.1526316663
  C        91.9270722112       14.6109991151       34.5597265591
  C        92.0014688610       14.7429576538       33.1593171600
  C        91.1756707042       14.0064525211       32.3032864586
  C        90.2551598129       13.1049288207       32.8739491082
  C        90.1985637059       12.9318696628       34.2526074572
  C        91.0311860709       13.6608322562       35.1277349343
  C        91.1039187515       13.3318510159       36.5562869053
  C        90.1271000197       12.8702722924       37.3750345989
  C        88.6910608996       12.7810516841       37.0977469886
  C        87.9510351227       11.6708876557       37.5467085590
  C        86.5913992667       11.5590547815       37.2689486452
  C        85.8997621707       12.5606903839       36.5546551833
  C        86.6351115689       13.7021918026       36.1589810641
  C        87.9956671873       13.8039563894       36.4191649608
  C        84.4605694965       12.3981259136       36.3553736597
  C        83.5905630880       13.1470990743       35.6357383490
  C        83.8817771005       14.2227024794       34.6715484918
  C        83.2949666161       15.5089319851       34.7983365247
  C        83.4910056136       16.4543620849       33.7744489264
  C        84.2688033142       16.1797817128       32.6374056640
  C        84.8460094325       14.8957068724       32.5278638080
  C        84.6558330494       13.9491095237       33.5269510545
  C        82.5247080300       15.8580018474       35.9912914284
  C        82.7636069237       15.5067592580       37.3133239702
  C        81.8304045547       16.0565885112       38.2185311648
  C        80.8565017078       16.8328468440       37.6010807425
  S        81.1208064675       16.8838743692       35.8805146619
  C        84.3880458609       17.2079983451       31.5976343601
  C        85.3451264524       17.3665153595       30.6514185954
  C        86.6210937772       16.6500936869       30.5134139466
  C        87.4731071617       16.4322023168       31.6159170057
  C        88.6923660742       15.7793799470       31.4699531254
  C        89.1161483861       15.3043019360       30.2078778892
  C        88.2737813238       15.5510782681       29.1033148271
  C        87.0591551781       16.2171894146       29.2481418076
  C        91.3029812713       14.1414862319       30.8352762977
  C        90.4017119097       14.6463736685       29.9625857386
  C        79.7643581709       17.5540088789       38.2013002322
  S        79.7542615782       17.8768215503       39.9127721567
  C        78.2551372199       18.7559505391       39.8146238650
  C        77.8050318002       18.7989595533       38.5022233169
  C        78.6476489468       18.1184456129       37.5949997944
  C        77.6425798912       19.3249150988       41.0129267837
  C        77.6129372013       18.5792306861       42.2068825805
  C        76.9744960057       19.0552677591       43.3577244626
  C        76.3637904297       20.3243010429       43.3062577209
  C        76.4267878288       21.0932767763       42.1492497623
  C        77.0701564650       20.6280716346       40.9828244246
  C        77.3107597138       21.5131589270       39.8372391909
  C        76.5651890665       22.5509525273       39.3837055274
  C        75.2095022503       22.9318912722       39.7886149357
  C        74.8638977614       24.2908818878       39.9152411520
  C        73.5863900970       24.6672267400       40.3209483228
  C        72.5882796948       23.7082472456       40.5962674112
  C        72.9237355007       22.3472138441       40.4122039961
  C        74.2034424450       21.9716187086       40.0236924337
  C        71.2548817984       24.1832543880       40.9594924258
  C        70.1737317316       23.4887581903       41.3864523289
  C        70.0880609034       22.0768703950       41.8040434741
  C        69.1430934143       21.2033741307       41.2108280673
  C        68.9757455800       19.9087393569       41.7286965812
  C        69.7466071597       19.4303059801       42.8021235460
  C        70.6883672061       20.3100041419       43.3801294921
  C        70.8511098692       21.6001767412       42.8878887497
  C        68.3874786802       21.6431867022       40.0341495896
  C        68.8794177286       22.2440532242       38.8859182516
  C        67.8785641873       22.5217598817       37.9268145672
  C        66.6071417035       22.1511025532       38.3424510598
  S        66.6668419825       21.4225387885       39.9217174257
  C        69.4908225596       18.0765378422       43.3061296237
  C        70.3086264836       17.2471076847       43.9988205997
  C        71.7387984852       17.4103984313       44.2958072409
  C        72.6634590358       17.8154480297       43.3108435464
  C        74.0187853943       17.9367675744       43.5979301961
  C        74.5148936280       17.6674588729       44.8937237893
  C        73.5901954004       17.2338494194       45.8673575790
  C        72.2353712111       17.0967218032       45.5747440020
  C        76.9842227140       18.2612370506       44.6051630454
  C        75.9297774739       17.7297235900       45.2658810402
  C        65.3531486181       22.3197055790       37.6448594209
  S        65.2887628182       22.1386258152       35.9167458207
  C        63.6024386885       22.5506609668       35.8634349801
  C        63.1212236004       22.8021382840       37.1388270745
  C        64.1045371057       22.6590482327       38.1474292319
  C        62.8764488310       22.5616821111       34.5897875452
  C        62.9389384636       21.4344188457       33.7523322272
  C        62.1980930655       21.3590917303       32.5669412235
  C        61.3981557312       22.4627900309       32.2112667918
  C        61.3659789115       23.6045044449       33.0054066827
  C        62.1022965989       23.6911471719       34.2066423087
  C        62.2230740654       24.9465457676       34.9586413999
  C        61.3509399726       25.9806022818       35.0433352263
  C        59.9595915938       26.0187959560       34.5827811100
  C        59.4532031328       27.1595426124       33.9324437382
  C        58.1383588054       27.1931306530       33.4740850795
  C        57.2646027859       26.1011363280       33.6628947010
  C        57.7626230926       24.9807877204       34.3664111487
  C        59.0781646503       24.9420272513       34.8093942979
  C        55.8818314780       26.2282667401       33.2058888304
  C        54.9043796468       25.2935508133       33.1420204522
  C        55.0082315670       23.8336833808       33.3243794641
  C        54.1906573499       23.1642598158       34.2680737688
  C        54.2001319289       21.7612317131       34.3222026881
  C        55.0257985605       20.9888556193       33.4869188096
  C        55.8342980395       21.6688470667       32.5500209895
  C        55.8231299585       23.0576402547       32.4772600987
  C        53.3773576705       23.9420657733       35.2081225819
  C        53.7798939748       24.9941539093       36.0156116908
  C        52.7387731433       25.5116931880       36.8220505408
  C        51.5241867174       24.8712585615       36.6204490682
  S        51.6918923944       23.5948089830       35.4496645661
  C        54.9589897892       19.5269140848       33.5873861853
  C        55.8758706070       18.5967641543       33.2263370458
  C        57.2598354288       18.8059000076       32.7769831196
  C        58.1401946382       19.6730917915       33.4560475148
  C        59.4528993396       19.8484163708       33.0311742754
  C        59.9460222292       19.1672546641       31.8951419352
  C        59.0716976849       18.2731219026       31.2419967063
  C        57.7617742881       18.0872101072       31.6766949545
  C        62.2925514166       20.1635936820       31.7025906615
  C        61.3186058337       19.2760631308       31.3955925575
  C        50.2393854437       25.1579903070       37.2164581386
  S        50.1219345467       25.6400886489       38.8843227848
  C        48.3994822978       25.8457888338       38.7765071779
  C        47.9498957601       25.5386260584       37.5019367625
  C        48.9844717121       25.1387344504       36.6240832167
  C        47.6059441046       26.2693796377       39.9345386509
  C        47.7353993012       25.6122551434       41.1682144919
  C        46.9357416960       25.9414137375       42.2764312285
  C        46.0039617441       26.9920247499       42.1262273407
  C        45.8758665054       27.6597279670       40.9135829400
  C        46.6668499558       27.3210720194       39.7973374390
  C        46.6181538092       28.1258764267       38.5639208812
  C        45.5548650193       28.4037410018       37.7727966884
  C        44.2064117435       27.8408049333       37.7871163294
  C        43.2297789250       28.4217101250       36.9508988590
  C        41.9391735007       27.9052129096       36.8739649651
  C        41.5581823388       26.7955855393       37.6519833075
  C        42.5426935190       26.1870388818       38.4585273907
  C        43.8356831577       26.6900774988       38.5207744656
  C        40.1901432097       26.2768925626       37.5751170684
  C        39.4217639666       25.7980632055       38.5843858928
  C        39.6471367873       25.8622456643       40.0328789400
  C        39.0358135000       24.9074881837       40.8942362316
  C        39.0506726491       25.1133752213       42.2862919196
  C        39.7156613496       26.2016951866       42.8623878330
  C        40.3673891366       27.1138925858       42.0082406153
  C        40.3163665502       26.9524213861       40.6281875971
  C        38.3886161864       23.7192412140       40.3414310915
  C        38.8356950628       22.8640038787       39.3441741474
  C        37.9424516994       21.8037978825       39.0696394244
  C        36.7902327923       21.8431082492       39.8466639930
  S        36.8315498434       23.2098060581       40.9258161088
  C        39.6908301018       26.4077531999       44.3261623896
  C        40.7326882118       26.3960100874       45.1886227447
  C        42.1407576993       26.0625460346       44.9633799032
  C        42.6284094448       25.4000812563       43.8141992916
  C        43.9776309515       25.0869757199       43.6873055948
  C        44.9028175789       25.4070807562       44.7022954821
  C        44.4124614596       26.0222224767       45.8691223871
  C        43.0647857355       26.3514339257       45.9894351912
  C        47.1581922917       25.2262361194       43.5370911657
  C        46.3260177012       25.0563603948       44.5929305846
  C        35.6219763547       21.0037645244       39.7932281740
  S        35.2893845015       20.0282623996       38.3895032749
  C        33.7660120729       19.4900796305       39.0358307500
  C        33.5363744279       20.0593484679       40.2799593044
  C        34.5821265885       20.9043007570       40.7109751952
  C        32.9027063199       18.5857476172       38.2781203567
  C        33.4375432589       17.4718665961       37.6078645625
  C        32.6281544998       16.5663567738       36.9020138147
  C        31.2390999894       16.8178255211       36.8598441126
  C        30.6983196415       17.9215176221       37.5093372746
  C        31.5060028162       18.8287765356       38.2218771834
  C        30.9236211791       20.0733929979       38.7558022077
  C        29.9012969947       20.2212341995       39.6311024169
  C        29.2328611128       19.2206688676       40.4629899175
  C        28.0647091834       19.5971135223       41.1587471906
  C        27.4102075175       18.7121561839       42.0130082784
  C        27.8851679402       17.4005609004       42.1938639433
  C        29.0753189068       17.0330305333       41.5334826799
  C        29.7364959806       17.9200918547       40.6912605318
  C        27.1783231445       16.4689807551       43.0856289045
  C        26.8109138517       15.1874726101       42.8398814532
  C        26.8626988118       14.4086662315       41.5991994570
  C        26.7013939680       13.0095879400       41.6798255894
  C        26.6787224323       12.2116711018       40.5379391428
  C        26.8396682368       12.7760472084       39.2590953009
  C        26.9721160886       14.1771444443       39.1706708747
  C        26.9735352697       14.9758381558       40.3096143895
  C        26.7792363758       11.9231866650       38.0622133235
  C        27.6002860566       11.8933318732       36.9832199903
  C        28.8786409151       12.5619384164       36.7325486127
  C        29.6874805313       13.1334776924       37.7405656540
  C        30.9203977801       13.6995213241       37.4357786622
  C        31.4142261353       13.7123844483       36.1145425479
  C        30.6333569760       13.1023351277       35.1152702219
  C        29.3906445281       12.5501387716       35.4176037544
  C        33.2646121644       15.4565784685       36.1844687866
  C        32.7309941305       14.2771912247       35.7847091646
  H       112.2855801289       15.2045582365       38.0447024343
  H       114.0770348441       13.4671997963       37.1856025984
  H       113.2328618160       12.2050542628       35.0098012102
  H       106.6517771942       16.3889868957       35.9423085787
  H       108.3336401840       14.4683017038       35.2887243414
  H       108.5216324940       18.1080237277       39.6685528961
  H       105.8228017443       21.4566198410       39.5086318362
  H       105.4406441119       21.0257108506       37.1002278511
  H       107.5201571195       18.7488805980       35.0676804504
  H       105.8113447546       19.4576671373       33.6401614631
  H       104.1585200044       21.4196756742       33.5098120489
  H       101.8848528042       22.2034540401       34.0986791412
  H       101.6741154536       19.2265852927       37.2140881639
  H       103.9527310325       18.4799871414       36.6510270179
  H        99.8694802351       21.9533721107       35.2011979600
  H        98.3701856268       21.3539488084       36.8830391064
  H        98.4979519761       17.6446082495       40.1215368007
  H       101.5578503893       20.5293279114       41.0716713507
  H       101.2101453388       21.6029669269       38.8689834631
  H        98.9291545632       18.6828236619       35.7366881713
  H        96.8230288832       17.5493045850       34.6301008871
  H        99.2677837309       17.8362559585       42.4026293229
  H       101.0463197520       17.8804463715       43.9098002468
  H       102.8256514632       17.8773697434       40.7568260923
  H       105.1575222035       18.6124670608       40.4321066243
  H       105.0804724059       20.5317238682       44.2948140254
  H       102.7521308134       19.7592217428       44.6300970652
  H       108.5640580380       20.4061604257       41.3661184779
  H       107.1081962352       20.4443365235       43.1797633324
  H        91.4465395188       15.9928821366       37.0612952286
  H        93.4137612155       17.4311939633       38.0678633309
  H        92.6908433714       15.4767618909       32.7342826193
  H        89.6055073632       12.5211477926       32.2190764916
  H        89.5230918152       12.1860127415       34.6737175577
  H        92.1072807611       13.4170288290       36.9865131196
  H        90.4380568472       12.5134729249       38.3624272459
  H        88.4598081150       10.8799459509       38.1020866675
  H        86.0397795274       10.6821569404       37.6154187343
  H        86.1265495714       14.5240797785       35.6557898274
  H        88.5415809105       14.6965874140       36.1071914304
  H        84.0223505240       11.5788224316       36.9351773770
  H        82.5242926521       12.9270884942       35.7662075996
  H        83.0498154984       17.4484582881       33.8868658380
  H        85.4244387485       14.6370828993       31.6410492106
  H        85.0859010279       12.9510659289       33.4200890676
  H        83.6099523857       14.8886486098       37.6081777888
  H        81.8541915028       15.8890523590       39.2953527266
  H        83.5592950197       17.9233370483       31.5754300497
  H        85.1595058065       18.1324415919       29.8908243485
  H        87.1704568006       16.8032037477       32.5972631169
  H        89.3384269976       15.6551481282       32.3387193353
  H        88.5891994773       15.2145434976       28.1132873966
  H        86.4283680806       16.3944888088       28.3744690657
  H        92.2452148430       13.7734385145       30.4140629502
  H        90.6739313783       14.5890431418       28.9032895915
  H        76.8708550708       19.2861773748       38.2237179569
  H        78.4435242753       18.0184372889       36.5286226371
  H        78.0585814453       17.5818258593       42.2167882873
  H        75.8663623666       20.7122950468       44.1977096077
  H        76.0045984746       22.0988809707       42.1495756984
  H        78.2644353337       21.3367617783       39.3293540632
  H        77.0261028609       23.1937860378       38.6264063841
  H        75.6175856376       25.0544246243       39.7105999085
  H        73.3429804317       25.7268565664       40.4256914593
  H        72.1654458426       21.5785468630       40.5608784861
  H        74.4388988726       20.9149989893       39.8815762070
  H        71.1053314775       25.2560772207       40.7994311633
  H        69.2272197555       24.0383329110       41.4486909668
  H        68.2495479330       19.2437608425       41.2541448267
  H        71.2756603082       19.9818234795       44.2378980332
  H        71.5631065782       22.2791370810       43.3621379352
  H        69.9380855653       22.4640374464       38.7515534715
  H        68.0609680414       23.0093113344       36.9692139369
  H        68.4778882718       17.7088754351       43.1117941457
  H        69.8579715964       16.3268361508       44.3858228997
  H        72.3030041909       18.0171305710       42.3000482429
  H        74.7087031443       18.2216900457       42.8042819547
  H        73.9517535001       16.9962693973       46.8703708706
  H        71.5432247567       16.7577194039       46.3484843921
  H        77.9745982033       18.0957658845       45.0434372614
  H        76.1591373498       17.2342750225       46.2151601953
  H        62.0809475494       23.0684672607       37.3259728029
  H        63.9276062360       22.8301984773       39.2093334718
  H        63.5427789191       20.5795653744       34.0650548139
  H        60.8192426125       22.4232508856       31.2864309385
  H        60.7859213238       24.4683434950       32.6785105494
  H        63.1871375344       25.0745773413       35.4612427756
  H        61.7190559914       26.8999410495       35.5104515639
  H        60.1090437544       28.0174091762       33.7682727438
  H        57.7674900254       28.0824520891       32.9589484647
  H        57.1020439887       24.1410822931       34.5813540065
  H        59.4419700758       24.0701663297       35.3564177694
  H        55.5925620293       27.2486355416       32.9327211022
  H        53.8943134080       25.6510721592       32.9106177878
  H        53.5709051072       21.2606732932       35.0626644233
  H        56.4558514944       21.0978093497       31.8601520386
  H        56.4351467354       23.5688519832       31.7311809102
  H        54.8042191845       25.3660893809       36.0202401371
  H        52.8500223608       26.3509837583       37.5087173817
  H        54.0134469778       19.1471196715       33.9888356690
  H        55.5575347254       17.5499848318       33.2781002994
  H        57.7807320677       20.2032411854       34.3401257056
  H        60.1134241739       20.5060399101       33.5955807234
  H        59.4372673995       17.7148024307       30.3775309598
  H        57.1074204624       17.3895594548       31.1500898846
  H        63.2794989672       19.9830265107       31.2627498579
  H        61.5922981188       18.4908318515       30.6826056263
  H        46.8970597489       25.5963308257       37.2269340492
  H        48.8361545798       24.8748395056       35.5770373117
  H        48.4576106054       24.7963241103       41.2539775451
  H        45.3964560059       27.2995340558       42.9777614390
  H        45.1702687195       28.4879740342       40.8196161537
  H        47.5797346491       28.5609486924       38.2680228778
  H        45.7333831999       29.1134788146       36.9581329773
  H        43.5004259896       29.2919969892       36.3487263818
  H        41.2027338427       28.3752423753       36.2185896468
  H        42.2798250862       25.2943143482       39.0295231404
  H        44.5777970649       26.1779569333       39.1328182075
  H        39.7416194338       26.2843348498       36.5761162314
  H        38.4619702149       25.3543455010       38.3006836452
  H        38.5715156804       24.3746297039       42.9335245196
  H        40.8863803224       27.9708882865       42.4421970394
  H        40.7700692350       27.7052484462       39.9822456552
  H        39.7992796968       22.9973830265       38.8528523944
  H        38.1301892573       21.0201437639       38.3354844638
  H        38.6995423559       26.5986133245       44.7521993774
  H        40.4976739186       26.6432007257       46.2293231865
  H        41.9364048647       25.1104587376       43.0236418789
  H        44.3322736420       24.5658871802       42.7954617979
  H        45.1047107420       26.2575128661       46.6803060180
  H        42.7082746605       26.8406239555       46.8983651508
  H        48.1607756416       24.7977148627       43.6371026246
  H        46.7578475950       24.5905918863       45.4853811263
  H        32.6425875375       19.8428820971       40.8637032918
  H        34.5908162800       21.4269098534       41.6677361992
  H        34.5142481100       17.2916971279       37.6654463184
  H        30.5887494636       16.1576782245       36.2858800065
  H        29.6272429654       18.1235024947       37.4407196715
  H        31.3747102071       20.9916159944       38.3615476607
  H        29.5524548120       21.2458243919       39.7976647123
  H        27.6708725271       20.6067360895       41.0220577916
  H        26.5046665240       19.0297054618       42.5343689521
  H        29.4827946524       16.0335948280       41.6987372330
  H        30.6654539441       17.6094866463       40.2126911752
  H        26.9182317335       16.8725740271       44.0699956820
  H        26.3657610205       14.6467005049       43.6815714817
  H        26.5862400015       12.5468541943       42.6623317787
  H        26.5489117483       11.1316671530       40.6323192906
  H        27.0526817731       14.6390425700       38.1841145465
  H        27.0412012894       16.0581529354       40.2010339933
  H        25.9429315608       11.2158043755       38.0495544460
  H        27.2909831423       11.2251900987       36.1724681885
  H        29.3513093758       13.1100535671       38.7770419582
  H        31.5335534372       14.1264523117       38.2320533566
  H        31.0041438406       13.0769663084       34.0883135656
  H        28.7981442049       12.0894971041       34.6238357966
  H        34.3081633159       15.6386623006       35.9077296348
  H        33.3561534703       13.6497252894       35.1404108147
