138
 energy: -211.651958110402 gnorm: 0.000308999775 xtb: 6.5.1 (579679a)
C            8.65972760912938        2.91169191853447        8.21049972935438
C            8.37305158860727        2.81670551970426        9.57520460112671
C            9.03623706665988        3.68518658689740       10.44579693216307
C            9.93826104463007        4.61340929982426        9.97070107156808
C           10.22061581574308        4.70846429805947        8.60620569939630
C            9.56518265673606        3.83392201574604        7.73676794901799
C            7.49330097606228        1.74790101521686       10.02192519747700
C            6.74214515638369        1.65066527295890       11.12593308647509
C            6.43799733479957        2.64564520944815       12.14496368575178
C            6.21786266515699        2.21453088332391       13.45521093686967
C            5.83242554331251        3.09947273052216       14.43638117452982
C            5.64167074091579        4.45462128291156       14.15196375972814
C            5.85062889970569        4.88356925181933       12.83874642545157
C            6.24364742258518        3.99840245517705       11.85724278588351
C            5.12880828580262        5.31367720779037       15.20783535945980
C            5.22042970305050        6.64017612220538       15.36206471697167
C            5.99474564097315        7.61700619395266       14.60813199972037
C            5.47183240055691        8.90105327872074       14.44061964796388
C            6.19936478495639        9.88378592687549       13.80894725619623
C            7.48670257345612        9.63166483067530       13.32579693145020
C            8.01670131321639        8.35194729897052       13.51061972154650
C            7.28398523770412        7.36460033735286       14.13453554905789
C            8.23067284826334       10.73777979350879       12.74686784707274
C            9.28419238049606       10.72219860511541       11.92104683099359
C            9.88071391071335        9.60713760652740       11.19712874659759
C           11.27339575723804        9.56087980745564       10.98789439919839
C           11.80006450661466        8.62396402684602       10.10606203572912
C           10.99796126199708        7.69507934621417        9.45116102198558
C            9.62168395555160        7.72478685407043        9.69543598366913
C            9.08232550855599        8.66702306069102       10.54356330235448
C           12.16302830478202       10.47332375515905       11.67738465275337
S           13.62238392570988       11.03450026277696       10.91009107511043
C           14.04359943333213       11.98866396581495       12.30276961988051
C           13.10399408068433       11.84539967688192       13.29379775123770
C           12.04657126539710       10.99783940735644       12.93877277061470
C           15.21515536192720       12.79859208022657       12.30989319051101
C           16.11545272000410       13.01324706388311       11.29573123454480
C           17.13398426525542       13.91297698655468       11.63826817202468
C           17.03519992331518       14.39316090114929       12.91866688314800
S           15.65238934770281       13.70940786375288       13.72652258110226
C           17.90100343947355       15.32213341270496       13.61717545843381
C           18.52711346796425       16.39085133659023       12.94314246533707
C           19.38621610544837       17.21644434419798       13.67187819405548
C           19.61320473654252       17.01887847797628       15.01619364887606
C           18.96064563893049       15.99022766355897       15.70160375748331
C           18.10793196989703       15.16052035079607       14.98262812080433
C           18.12911154911496       16.72530524356480       11.58414840150699
C           18.83385443989740       17.30117901337618       10.60191396473473
C           20.25434396565355       17.60376567606395       10.52686340601910
C           20.65958859057247       18.66784956883408        9.71658585200581
C           21.99204359553385       18.97057040429045        9.55844017841565
C           22.98336831268306       18.22072927419060       10.19827872619539
C           22.57996780031237       17.14229862175045       10.99017638619117
C           21.24405403042196       16.84169407202739       11.15243874163903
C           24.37201225939049       18.55402207382046        9.92929739478439
C           25.47174210596445       18.28847928610228       10.64504989071172
C           25.59599941334230       17.75779287486817       11.99595461728903
C           26.67423899445912       16.91444493272770       12.33218565765933
C           26.91416104042962       16.61715554320649       13.66949689081568
C           26.09438820026175       17.08844402346355       14.68909954211111
C           24.99929391493443       17.88435597556508       14.34008030915101
C           24.76774274872611       18.21440814084040       13.02277484060822
C           27.53580664433629       16.35398068603920       11.31151817079278
S           29.20496735299856       16.00023778652523       11.66349062076720
C           29.47053807771139       15.40770210542837       10.04996014404461
C           28.31682298658851       15.47591552936026        9.31011482708924
C           27.23195418110225       16.00868222135706       10.01962838673121
C           30.75510451466389       14.93621027248745        9.64768138400157
C           31.90566606692311       14.86044065900294       10.38921172603888
C           32.99731357716870       14.34704998470714        9.66485011765778
C           32.67678241310503       14.03557816841669        8.38208394928275
S           31.02730811606156       14.36252160399885        8.02519251951274
H           33.30681906358386       13.63156221883224        7.61505571165320
C           26.47626266207944       16.82225293932371       16.06937469964447
C           25.70677350624642       16.68455398422191       17.15528249608645
C           24.25835840039217       16.58374601864623       17.26100844580186
C           23.46518084795592       15.96360915513503       16.29289220451234
C           22.11086919881309       15.79399131733161       16.48707138168553
C           21.49089996206053       16.24094581890235       17.65654344260447
C           22.28665334221245       16.85850488716039       18.62535052695396
C           23.63953273728550       17.02425651251365       18.43331722413934
C           19.04830606700358       15.81858386693685       17.14637372889169
C           20.09127676863552       15.99344441820763       17.96618362929377
C           11.61604112866964        6.81387611028972        8.47056968210047
C           11.24599436259144        5.59248368081334        8.06893552544618
H           33.98011788677336       14.21523838454095       10.08083454722131
H           31.95395568913350       15.16651073754624       11.41921184699661
H           26.24513878931314       16.10920393563663        9.60418353670000
H           28.26488175472130       15.14822511452353        8.28663311550952
H           27.76161786891510       15.99257098813789       13.91801478680763
H           24.35906330630466       18.27896443401132       15.11418865791092
H           23.95071138512575       18.87508544553063       12.77248881163338
H           26.42543098873604       18.54966356187893       10.19810954265933
H           24.51561732219552       19.07390004629366        8.98829938393309
H           22.28186466666257       19.79954636427684        8.92767184193596
H           19.91055644831971       19.26030866176969        9.20967100008580
H           20.95714890267656       15.98905806145417       11.75020864415265
H           23.32688539027926       16.51991738527757       11.46006457649865
H           18.28607343460745       17.58387061192124        9.70938157284127
H           17.08289530743773       16.52281072814217       11.38096634396200
H           17.59718070511201       14.35565297073392       15.49380966302324
H           20.26418547826709       17.68896153900458       15.55720901004979
H           19.84958159253113       18.05324023723717       13.17088164952398
H           17.93526164172608       14.18357567543002       10.97357290982228
H           16.03085797308573       12.53528980232615       10.33550127181468
H           18.10697260475022       15.52834574450137       17.60015703315954
H           19.89671522362498       15.90772060485345       19.02988792749415
H           21.52646316769656       15.27690348726895       15.74104262196530
H           23.92830888871706       15.58096016854983       15.39553781761563
H           24.23707307152598       17.49612015396248       19.20100734660882
H           21.82991862181446       17.20147819487981       19.54342812479490
H           27.54947745214680       16.76308140472181       16.21345383355253
H           26.21432161202537       16.60301455048139       18.11046621997195
H           11.23257527905408       10.75587674971149       13.59877734067636
H           13.18300681806121       12.34599703749929       14.24290594981900
H           12.86817187903130        8.61583260287524        9.93526026757046
H            8.97369002035680        7.03205506272787        9.18084757190480
H            8.01212207906786        8.71148450708621       10.68304000113431
H            9.75097531880476       11.67639680654595       11.69932626672103
H            7.88046874599367       11.71082269021805       13.07386257013884
H            5.77436911830996       10.87077671924511       13.68874319376010
H            4.48103198790344        9.12086624917977       14.81348462881561
H            7.72097701335840        6.38877068461631       14.28789627282715
H            9.02466546583617        8.14189890750460       13.18568883057407
H            4.65419540243430        7.07933130100021       16.17676166806437
H            4.55893885843537        4.77438820927097       15.95713673952775
H            5.66423713950437        2.74245846021519       15.44312115880812
H            6.34981569609530        1.16881168715991       13.69643787133656
H            6.37201845916617        4.34656576824390       10.84288564711946
H            5.66997010229333        5.91658582844873       12.58253569747968
H            6.25385157638966        0.69781491038604       11.30175903376845
H            7.48871094584246        0.89307477603428        9.35384781404465
H            8.86408846924704        3.60477671951520       11.50851557643548
H           10.46117579058400        5.25515526277552       10.66439373202374
H            9.77843367904509        3.88291625358831        6.67789049652500
H            8.16702908224270        2.24148006818959        7.51964634005593
H           12.48375713342914        7.25041786509458        7.98834442705947
H           11.79227024918882        5.16144362157568        7.23674995992508
