  138
FINAL HEAT OF FORMATION = -1579.171343
 C     8.270859     3.052133     8.098082
 C     7.758856     3.063933     9.413027
 C     8.567695     3.635472    10.421044
 C     9.800612     4.201516    10.116257
 C    10.294441     4.214379     8.795021
 C     9.513572     3.604329     7.795748
 C     6.480501     2.395326     9.663698
 C     5.659451     2.425181    10.742692
 C     5.719883     3.278041    11.939573
 C     5.558936     2.713665    13.218417
 C     5.581608     3.511582    14.360304
 C     5.742912     4.910660    14.279678
 C     5.853749     5.477832    12.990093
 C     5.852331     4.679139    11.851149
 C     5.691127     5.689467    15.520360
 C     6.058536     6.970975    15.766107
 C     6.765382     7.902555    14.874343
 C     6.290421     9.214150    14.693487
 C     6.944923    10.099108    13.839226
 C     8.113075     9.722663    13.143469
 C     8.616710     8.422086    13.371740
 C     7.955533     7.535025    14.213962
 C     8.781512    10.723229    12.311583
 C     9.803836    10.575388    11.436282
 C    10.386217     9.330772    10.902357
 C    11.782921     9.087743    10.958602
 C    12.317759     7.973862    10.288346
 C    11.508370     7.068352     9.582494
 C    10.119316     7.319821     9.540323
 C     9.578535     8.423513    10.189816
 C    12.646227     9.992075    11.716312
 S    14.169599    10.530258    11.069985
 C    14.502191    11.505760    12.473711
 C    13.462340    11.406295    13.391457
 C    12.416589    10.561344    12.960441
 C    15.670447    12.345103    12.527147
 C    16.822666    12.305793    11.750124
 C    17.715910    13.365998    12.024659
 C    17.268831    14.221235    13.021916
 S    15.711764    13.711800    13.606300
 C    17.916028    15.409482    13.574721
 C    18.527351    16.364240    12.713365
 C    19.196581    17.454416    13.308674
 C    19.247604    17.615887    14.688727
 C    18.595875    16.703688    15.542874
 C    17.930886    15.615369    14.966777
 C    18.301980    16.300058    11.264872
 C    19.070359    16.778888    10.255603
 C    20.438398    17.297581    10.332471
 C    20.819390    18.407208     9.554452
 C    22.109996    18.923705     9.631387
 C    23.086627    18.342800    10.467605
 C    22.715899    17.192073    11.201263
 C    21.422909    16.689034    11.139015
 C    24.435081    18.905736    10.453286
 C    25.498369    18.627872    11.244410
 C    25.547065    17.823066    12.477827
 C    26.486159    16.771374    12.615028
 C    26.615614    16.114249    13.848703
 C    25.815955    16.443407    14.956919
 C    24.884175    17.494018    14.806716
 C    24.756081    18.161722    13.594072
 C    27.279698    16.347784    11.456996
 S    29.002150    16.142084    11.564813
 C    29.119601    15.659987     9.896947
 C    27.864688    15.640731     9.304572
 C    26.830111    16.040621    10.182425
 C    30.404403    15.373255     9.300939
 C    31.618990    16.013689     9.502542
 C    32.660111    15.496150     8.696103
 C    32.257574    14.444062     7.888613
 S    30.572109    14.096805     8.130154
 H    32.828863    13.897706     7.228292
 C    26.038405    15.728228    16.217579
 C    25.206230    15.558353    17.273419
 C    23.783030    15.909073    17.382783
 C    22.857844    15.588969    16.367793
 C    21.508622    15.902075    16.494686
 C    21.020970    16.564538    17.643867
 C    21.944998    16.853425    18.669922
 C    23.292674    16.524214    18.549610
 C    18.571044    16.909746    17.006649
 C    19.612901    16.898002    17.869109
 C    12.144828     5.958574     8.864949
 C    11.611211     4.779186     8.465188
 H    33.684436    15.868086     8.700732
 H    31.730238    16.852979    10.189209
 H    25.777276    16.098327     9.907422
 H    27.716371    15.376837     8.257527
 H    27.337825    15.298318    13.934466
 H    24.276670    17.801527    15.658250
 H    24.050482    18.989968    13.500105
 H    26.459950    19.062944    10.948513
 H    24.613600    19.615474     9.638622
 H    22.380643    19.793992     9.029215
 H    20.082950    18.877238     8.899077
 H    21.160040    15.796310    11.710010
 H    23.458012    16.679952    11.813306
 H    18.621836    16.786330     9.256602
 H    17.342186    15.856341    10.981169
 H    17.451729    14.876623    15.614010
 H    19.766595    18.472882    15.122684
 H    19.650285    18.207243    12.662733
 H    18.679495    13.499377    11.533338
 H    17.010405    11.522139    11.015969
 H    17.579756    17.100607    17.432685
 H    19.377887    17.145193    18.909809
 H    20.816617    15.612453    15.704128
 H    23.212486    15.067880    15.475949
 H    23.984923    16.759504    19.360794
 H    21.588487    17.342615    19.578852
 H    27.040988    15.299707    16.317591
 H    25.638060    15.092583    18.165868
 H    11.522801    10.344876    13.544184
 H    13.471030    11.928904    14.348218
 H    13.394464     7.793692    10.345928
 H     9.468965     6.659673     8.966359
 H     8.507459     8.625498    10.121199
 H    10.254925    11.493611    11.042029
 H     8.432668    11.747820    12.478145
 H     6.551086    11.108730    13.702537
 H     5.384880     9.531700    15.214847
 H     8.363008     6.535589    14.379216
 H     9.545669     8.111481    12.893171
 H     5.798444     7.374568    16.750474
 H     5.245974     5.148695    16.362050
 H     5.466454     3.048848    15.342810
 H     5.429125     1.633661    13.312797
 H     5.932896     5.141037    10.864593
 H     5.921415     6.560147    12.881512
 H     4.823146     1.717799    10.730033
 H     6.171198     1.727184     8.852946
 H     8.231524     3.612048    11.457520
 H    10.413768     4.628447    10.912532
 H     9.884358     3.578961     6.768792
 H     7.678359     2.591491     7.304314
 H    13.188380     6.140659     8.588211
 H    12.236371     4.151722     7.820891
