  124
FINAL HEAT OF FORMATION = -1374.549797
 C    38.158684     8.651591    57.970229
 C    39.374608     8.277253    58.570543
 C    39.475521     6.987938    59.123224
 C    38.417031     6.084773    59.030005
 C    37.239122     6.426121    58.341188
 C    37.116041     7.733829    57.839021
 C    40.523922     9.202564    58.609820
 C    41.760136     8.963372    58.111697
 C    42.215884     7.828481    57.298835
 C    43.585639     7.509074    57.266374
 C    44.088884     6.464346    56.475769
 C    43.208890     5.704784    55.661424
 C    41.836754     6.037423    55.690381
 C    41.351458     7.072326    56.477631
 C    43.717009     4.552111    54.906516
 C    43.204443     3.997925    53.782060
 C    42.103438     4.548791    52.972225
 C    42.160458     5.864465    52.477784
 C    41.078785     6.417937    51.795126
 C    39.886323     5.689209    51.625029
 C    39.855462     4.350876    52.058455
 C    40.954071     3.782600    52.701404
 C    38.698365     6.334899    51.041338
 C    37.457768     6.370655    51.585239
 C    37.041716     5.929741    52.922579
 C    35.701316     5.523490    53.177349
 C    35.300420     5.240404    54.495646
 C    36.174508     5.353643    55.588841
 C    37.508618     5.732123    55.319504
 C    37.919818     6.016053    54.025452
 C    34.727003     5.423148    52.088690
 C    34.870245     4.882717    50.819171
 C    33.716902     5.032229    50.011314
 C    32.676891     5.687730    50.654017
 S    33.143684     6.117676    52.272878
 C    31.362026     6.078991    50.142534
 C    31.225595     6.676311    48.857849
 C    29.926393     7.039822    48.440801
 C    28.811645     6.843236    49.242456
 C    28.937490     6.273517    50.528583
 C    30.221192     5.884095    50.941778
 C    32.405496     7.020715    48.053682
 C    32.494774     7.126530    46.705674
 C    31.448318     6.754254    45.739277
 C    30.829571     5.491596    45.783745
 C    29.755978     5.193247    44.946927
 C    29.236048     6.163610    44.069247
 C    29.905647     7.396889    43.967137
 C    31.007997     7.678421    44.772515
 C    27.997291     5.899035    43.318719
 C    26.889979     6.679932    43.307567
 C    26.600152     7.855923    44.137749
 C    25.698450     8.863511    43.692797
 C    25.337428     9.907187    44.563991
 C    25.824182     9.992797    45.877821
 C    26.735228     8.999820    46.300394
 C    27.102232     7.964756    45.452946
 H    25.290654     8.828733    42.747602
 C    25.422330    11.125906    46.721216
 C    25.393308    11.195885    48.072624
 C    25.637712    10.076060    49.003685
 C    26.668657    10.139899    49.958253
 C    26.972748     9.034941    50.753744
 C    26.226727     7.846713    50.651747
 C    25.132901     7.818816    49.768038
 C    24.856971     8.907840    48.941036
 C    27.793643     6.021496    51.413483
 C    26.596914     6.653663    51.439049
 C    35.687092     5.019710    56.932792
 C    36.169699     5.430029    58.129280
 C    45.539374     6.190519    56.488841
 C    46.308714     5.664920    57.509966
 C    47.686137     5.547772    57.171533
 C    47.956365     5.996875    55.897364
 S    46.531096     6.550712    55.107273
 H    24.660787    10.682405    44.195542
 H    27.158969     9.048288    47.303472
 H    27.779655     7.192789    45.819202
 H    26.077494     6.382380    42.637180
 H    27.965248     4.970551    42.739216
 H    29.272041     4.215925    45.009910
 H    31.185020     4.752897    46.505048
 H    31.503693     8.648881    44.696303
 H    29.533528     8.144749    43.263926
 H    33.415374     7.550283    46.291432
 H    33.300279     7.266083    48.634567
 H    30.343835     5.402934    51.915384
 H    27.827273     7.130535    48.873199
 H    29.804137     7.515983    47.467397
 H    33.627932     4.653809    48.993307
 H    35.781251     4.376778    50.500466
 H    27.936991     5.200723    52.123973
 H    25.827408     6.251836    52.106336
 H    27.809202     9.075546    51.454093
 H    27.267710    11.049480    50.039805
 H    24.039240     8.856351    48.219709
 H    24.525781     6.914037    49.696019
 H    25.131802    12.026179    46.170001
 H    25.164510    12.166514    48.524878
 H    34.273262     4.908534    54.667723
 H    38.225523     5.800878    56.137586
 H    38.945652     6.343263    53.852783
 H    36.663789     6.826985    50.985550
 H    38.846135     6.855152    50.089278
 H    41.132731     7.446645    51.432302
 H    43.060646     6.456465    52.655081
 H    40.906602     2.747901    53.048167
 H    38.946994     3.765514    51.903453
 H    43.637692     3.051709    53.441848
 H    44.594902     4.069694    55.347771
 H    44.289013     8.094328    57.863420
 H    40.287984     7.309584    56.454392
 H    41.139330     5.453503    55.089284
 H    45.877598     5.352859    58.461396
 H    48.446455     5.142703    57.838122
 H    48.913295     6.035706    55.384397
 H    42.526561     9.721158    58.305642
 H    40.353810    10.169490    59.094899
 H    40.405552     6.695969    59.614716
 H    38.519837     5.082550    59.451611
 H    36.196392     8.017612    57.323467
 H    38.050677     9.657940    57.560057
 H    34.833203     4.334403    56.951545
 H    35.731736     4.986088    59.029299
